version 3
run Default-0-20231009-06:09:18-5595
attr configname Default
attr datetime 20231009-06:09:18
attr datetimef 20231009-060918
attr experiment Default
attr inifile omnetpp.ini
attr iterationvars ""
attr iterationvarsd ""
attr iterationvarsf ""
attr measurement ""
attr network RSUExampleScenario
attr processid 5595
attr repetition 0
attr replication #0
attr resultdir results
attr runnumber 0
attr seedset 0
config image-path ../../images
config cmdenv-express-mode true
config cmdenv-autoflush true
config cmdenv-status-frequency 1s
config **.cmdenv-log-level info
config image-path ../../images
config network RSUExampleScenario
config debug-on-errors true
config print-undisposed true
config sim-time-limit 200s
config **.scalar-recording true
config **.vector-recording true
config *.playgroundSizeX 2000m
config *.playgroundSizeY 5000m
config *.playgroundSizeZ 50m
config *.annotations.draw true
config *.obstacles.obstacles "xmldoc(\"config.xml\", \"//AnalogueModel[@type='SimpleObstacleShadowing']/obstacles\")"
config *.manager.updateInterval 1s
config *.manager.host "\"localhost\""
config *.manager.port 9999
config *.manager.autoShutdown true
config *.manager.launchConfig "xmldoc(\"erlangen.launchd.xml\")"
config *.rsu[0].mobility.x 1000
config *.rsu[0].mobility.y 2000
config *.rsu[0].mobility.z 3
config *.rsu[1].mobility.x 500
config *.rsu[1].mobility.y 1500
config *.rsu[1].mobility.z 4
config *.rsu[*].applType "\"TraCIDemoRSU11p\""
config *.rsu[*].appl.headerLength "80 bit"
config *.rsu[*].appl.sendBeacons false
config *.rsu[*].appl.dataOnSch false
config *.rsu[*].appl.beaconInterval 1s
config *.rsu[*].appl.beaconUserPriority 7
config *.rsu[*].appl.dataUserPriority 5
config *.rsu[*].nic.phy80211p.antennaOffsetZ "0 m"
config *.connectionManager.sendDirect true
config *.connectionManager.maxInterfDist 2600m
config *.connectionManager.drawMaxIntfDist false
config *.**.nic.mac1609_4.useServiceChannel false
config *.**.nic.mac1609_4.txPower 20mW
config *.**.nic.mac1609_4.bitrate 6Mbps
config *.**.nic.phy80211p.minPowerLevel -110dBm
config *.**.nic.phy80211p.useNoiseFloor true
config *.**.nic.phy80211p.noiseFloor -98dBm
config *.**.nic.phy80211p.decider "xmldoc(\"config.xml\")"
config *.**.nic.phy80211p.analogueModels "xmldoc(\"config.xml\")"
config *.**.nic.phy80211p.usePropagationDelay true
config *.**.nic.phy80211p.antenna "xmldoc(\"antenna.xml\", \"/root/Antenna[@id='monopole']\")"
config *.node[*].nic.phy80211p.antennaOffsetY "0 m"
config *.node[*].nic.phy80211p.antennaOffsetZ "1.895 m"
config *.node[*].applType "\"TraCIDemo11p\""
config *.node[*].appl.headerLength "80 bit"
config *.node[*].appl.sendBeacons false
config *.node[*].appl.dataOnSch false
config *.node[*].appl.beaconInterval 0s
config *.node[*].veinsmobility.x 0
config *.node[*].veinsmobility.y 0
config *.node[*].veinsmobility.z 0
config *.node[*].veinsmobility.setHostSpeed false
config *.node[*0].veinsmobility.accidentCount 1
config *.node[*0].veinsmobility.accidentStart 83s
config *.node[*0].veinsmobility.accidentDuration 50s

vector 0 RSUExampleScenario.node[0].veinsmobility posx ETV
vector 1 RSUExampleScenario.node[0].veinsmobility posy ETV
vector 2 RSUExampleScenario.node[1].veinsmobility posx ETV
vector 3 RSUExampleScenario.node[1].veinsmobility posy ETV
vector 4 RSUExampleScenario.node[0].veinsmobility speed ETV
vector 5 RSUExampleScenario.node[2].veinsmobility posx ETV
vector 6 RSUExampleScenario.node[2].veinsmobility posy ETV
vector 7 RSUExampleScenario.node[0].veinsmobility acceleration ETV
vector 8 RSUExampleScenario.node[0].veinsmobility co2emission ETV
vector 9 RSUExampleScenario.node[1].veinsmobility speed ETV
vector 10 RSUExampleScenario.node[3].veinsmobility posx ETV
vector 11 RSUExampleScenario.node[3].veinsmobility posy ETV
vector 12 RSUExampleScenario.node[1].veinsmobility acceleration ETV
vector 13 RSUExampleScenario.node[1].veinsmobility co2emission ETV
vector 14 RSUExampleScenario.node[2].veinsmobility speed ETV
vector 15 RSUExampleScenario.node[4].veinsmobility posx ETV
vector 16 RSUExampleScenario.node[4].veinsmobility posy ETV
vector 17 RSUExampleScenario.node[2].veinsmobility acceleration ETV
vector 18 RSUExampleScenario.node[2].veinsmobility co2emission ETV
vector 19 RSUExampleScenario.node[3].veinsmobility speed ETV
vector 20 RSUExampleScenario.node[5].veinsmobility posx ETV
vector 21 RSUExampleScenario.node[5].veinsmobility posy ETV
vector 22 RSUExampleScenario.node[3].veinsmobility acceleration ETV
vector 23 RSUExampleScenario.node[3].veinsmobility co2emission ETV
vector 24 RSUExampleScenario.node[4].veinsmobility speed ETV
vector 25 RSUExampleScenario.node[6].veinsmobility posx ETV
vector 26 RSUExampleScenario.node[6].veinsmobility posy ETV
vector 27 RSUExampleScenario.node[4].veinsmobility acceleration ETV
vector 28 RSUExampleScenario.node[4].veinsmobility co2emission ETV
vector 29 RSUExampleScenario.node[5].veinsmobility speed ETV
vector 30 RSUExampleScenario.node[7].veinsmobility posx ETV
vector 31 RSUExampleScenario.node[7].veinsmobility posy ETV
vector 32 RSUExampleScenario.node[5].veinsmobility acceleration ETV
vector 33 RSUExampleScenario.node[5].veinsmobility co2emission ETV
vector 34 RSUExampleScenario.node[6].veinsmobility speed ETV
vector 35 RSUExampleScenario.node[8].veinsmobility posx ETV
vector 36 RSUExampleScenario.node[8].veinsmobility posy ETV
vector 37 RSUExampleScenario.node[6].veinsmobility acceleration ETV
vector 38 RSUExampleScenario.node[6].veinsmobility co2emission ETV
vector 39 RSUExampleScenario.node[7].veinsmobility speed ETV
vector 40 RSUExampleScenario.node[9].veinsmobility posx ETV
vector 41 RSUExampleScenario.node[9].veinsmobility posy ETV
vector 42 RSUExampleScenario.node[7].veinsmobility acceleration ETV
vector 43 RSUExampleScenario.node[7].veinsmobility co2emission ETV
vector 44 RSUExampleScenario.node[8].veinsmobility speed ETV
vector 45 RSUExampleScenario.node[10].veinsmobility posx ETV
vector 46 RSUExampleScenario.node[10].veinsmobility posy ETV
vector 47 RSUExampleScenario.node[8].veinsmobility acceleration ETV
vector 48 RSUExampleScenario.node[8].veinsmobility co2emission ETV
vector 49 RSUExampleScenario.node[9].veinsmobility speed ETV
vector 50 RSUExampleScenario.node[11].veinsmobility posx ETV
vector 51 RSUExampleScenario.node[11].veinsmobility posy ETV
vector 52 RSUExampleScenario.node[9].veinsmobility acceleration ETV
vector 53 RSUExampleScenario.node[9].veinsmobility co2emission ETV
vector 54 RSUExampleScenario.node[10].veinsmobility speed ETV
vector 55 RSUExampleScenario.node[12].veinsmobility posx ETV
vector 56 RSUExampleScenario.node[12].veinsmobility posy ETV
vector 57 RSUExampleScenario.node[10].veinsmobility acceleration ETV
vector 58 RSUExampleScenario.node[10].veinsmobility co2emission ETV
vector 59 RSUExampleScenario.node[11].veinsmobility speed ETV
vector 60 RSUExampleScenario.node[13].veinsmobility posx ETV
vector 61 RSUExampleScenario.node[13].veinsmobility posy ETV
vector 62 RSUExampleScenario.node[11].veinsmobility acceleration ETV
vector 63 RSUExampleScenario.node[11].veinsmobility co2emission ETV
vector 64 RSUExampleScenario.node[12].veinsmobility speed ETV
vector 65 RSUExampleScenario.node[14].veinsmobility posx ETV
vector 66 RSUExampleScenario.node[14].veinsmobility posy ETV
vector 67 RSUExampleScenario.node[12].veinsmobility acceleration ETV
vector 68 RSUExampleScenario.node[12].veinsmobility co2emission ETV
vector 69 RSUExampleScenario.node[13].veinsmobility speed ETV
vector 70 RSUExampleScenario.node[15].veinsmobility posx ETV
vector 71 RSUExampleScenario.node[15].veinsmobility posy ETV
vector 72 RSUExampleScenario.node[13].veinsmobility acceleration ETV
vector 73 RSUExampleScenario.node[13].veinsmobility co2emission ETV
vector 74 RSUExampleScenario.node[14].veinsmobility speed ETV
vector 75 RSUExampleScenario.node[16].veinsmobility posx ETV
vector 76 RSUExampleScenario.node[16].veinsmobility posy ETV
vector 77 RSUExampleScenario.node[14].veinsmobility acceleration ETV
vector 78 RSUExampleScenario.node[14].veinsmobility co2emission ETV
vector 79 RSUExampleScenario.node[15].veinsmobility speed ETV
vector 80 RSUExampleScenario.node[17].veinsmobility posx ETV
vector 81 RSUExampleScenario.node[17].veinsmobility posy ETV
vector 82 RSUExampleScenario.node[15].veinsmobility acceleration ETV
vector 83 RSUExampleScenario.node[15].veinsmobility co2emission ETV
vector 84 RSUExampleScenario.node[16].veinsmobility speed ETV
vector 85 RSUExampleScenario.node[18].veinsmobility posx ETV
vector 86 RSUExampleScenario.node[18].veinsmobility posy ETV
vector 87 RSUExampleScenario.node[16].veinsmobility acceleration ETV
vector 88 RSUExampleScenario.node[16].veinsmobility co2emission ETV
vector 89 RSUExampleScenario.node[17].veinsmobility speed ETV
vector 90 RSUExampleScenario.node[17].veinsmobility acceleration ETV
vector 91 RSUExampleScenario.node[17].veinsmobility co2emission ETV
vector 92 RSUExampleScenario.node[18].veinsmobility speed ETV
vector 93 RSUExampleScenario.node[18].veinsmobility acceleration ETV
vector 94 RSUExampleScenario.node[18].veinsmobility co2emission ETV
0	3	2	905.6174603461
0	4	3	905.58073364764
0	5	4	905.51984849698
0	6	5	905.43484003824
0	7	6	905.32791789218
0	8	7	905.19898330791
0	9	8	905.05021939565
0	10	9	904.87874287398
0	11	10	904.69649283139
0	12	11	904.51440114731
0	13	12	904.33227100695
0	14	13	904.15021150927
0	15	14	903.96806900538
0	16	15	903.78853087121
0	17	16	903.6485244361
0	18	17	903.55972116899
0	19	18	902.28219347833
0	20	19	900.34338304145
0	21	20	900.4088788134
0	22	21	900.50044415247
0	23	22	900.61541932961
0	24	23	900.7542061073
0	25	24	900.91557960889
0	26	25	901.09582161327
0	27	26	901.27783818024
0	28	27	901.46007738742
0	29	28	901.64223340835
0	30	29	901.82444710899
0	31	30	902.00645807809
1	3	2	1972.6116627001
1	4	3	1969.4987704001
1	5	4	1964.3382489102
1	6	5	1957.1330769849
1	7	6	1948.0705383113
1	8	7	1937.1422629318
1	9	8	1924.5332875437
1	10	9	1909.9992301339
1	11	10	1894.552027472
1	12	11	1879.118247007
1	13	12	1863.6812070536
1	14	13	1848.2501546527
1	15	14	1832.812066788
1	16	15	1817.5947208562
1	17	16	1805.7280142902
1	18	17	1798.1476301697
1	19	18	1793.9540190822
1	20	19	1796.7570012148
1	21	20	1802.3978558184
1	22	21	1810.1592116916
1	23	22	1819.9048564456
1	24	23	1831.6688446875
1	25	24	1845.347352156
1	26	25	1860.6252111531
1	27	26	1876.0534874574
1	28	27	1891.5006354217
1	29	28	1906.9407322672
1	30	29	1922.3857182196
1	31	30	1937.8135200313
2	4	3	369.01218007613
2	5	4	369.04986120841
2	6	5	369.11001224493
2	7	6	369.19221144478
2	8	7	369.29666250911
2	9	8	369.42437083017
2	10	9	369.5760842544
2	11	10	369.74853124685
2	12	11	369.92207370653
2	13	12	370.09575584428
2	14	13	370.26962492008
2	15	14	370.44053968456
2	16	15	370.61018831598
2	17	16	370.7816212813
2	18	17	370.95580085163
2	19	18	371.12996865368
2	20	19	371.30479715115
2	21	20	371.47746413328
2	22	21	371.65005683547
2	23	22	371.82247040176
2	24	23	371.99415454345
2	25	24	372.16591901024
2	26	25	372.33755675384
2	27	26	372.50942819803
2	28	27	372.68122601982
2	29	28	372.85213817389
2	30	29	373.02369620639
2	31	30	373.17386955427
3	4	3	1207.0042607979
3	5	4	1210.2274928908
3	6	5	1215.372793459
3	7	6	1222.4040869197
3	8	7	1231.3387978033
3	9	8	1242.2629270439
3	10	9	1255.2278324343
3	11	10	1269.6214080702
3	12	11	1284.1064187049
3	13	12	1298.6030878025
3	14	13	1313.1153599959
3	15	14	1327.6245976495
3	16	15	1342.1273806534
3	17	16	1356.618890604
3	18	17	1371.1106308553
3	19	18	1385.6033888514
3	20	19	1400.1036918544
3	21	20	1414.5930435087
3	22	21	1429.0974686736
3	23	22	1443.5868395322
3	24	23	1458.0803795437
3	25	24	1472.5881488226
3	26	25	1487.0852146612
3	27	26	1501.6020195894
3	28	27	1516.1126061372
3	29	28	1530.61563833
3	30	29	1545.1082123501
3	31	30	1557.7321594055
4	4	3	4.0239826316459
4	5	4	6.0591388341648
4	6	5	8.1319627650853
4	7	6	9.9779612845814
4	8	7	11.658599007773
4	9	8	13.457408905353
4	10	9	15.43846492129
4	11	10	15.499638160485
4	12	11	15.444017674396
4	13	12	15.377851690977
4	14	13	15.464770772116
4	15	14	15.4097488654
4	16	15	14.343033641194
4	17	16	9.8430336411941
4	18	17	6.7630336411941
4	19	18	3.9792148208203
4	20	19	4.5581748676513
4	21	20	6.5888228475353
4	22	21	8.6464310518633
4	23	22	10.732020847986
4	24	23	12.549997611738
4	25	24	14.55046898363
4	26	25	15.44561707049
4	27	26	15.416949205346
4	28	27	15.501020692288
4	29	28	15.390345667811
4	30	29	15.500915478295
4	31	30	15.389715656106
5	5	4	1246.4962974588
5	6	5	1246.387550308
5	7	6	1246.3435451239
5	8	7	1246.4620142116
5	9	8	1246.6079122369
5	10	9	1246.7884455081
5	11	10	1247.0017266977
5	12	11	1247.2252252094
5	13	12	1247.4485213236
5	14	13	1247.6719922436
5	15	14	1247.8952888178
5	16	15	1248.1187105979
5	17	16	1248.3420410461
5	18	17	1248.5654687579
5	19	18	1248.7889528377
5	20	19	1249.0126010272
5	21	20	1249.2361259012
5	22	21	1249.4564314351
5	23	22	1249.9050993093
5	24	23	1250.369792699
5	25	24	1250.8345328978
5	26	25	1251.2953401965
5	27	26	1251.7563312323
5	28	27	1252.2180419702
5	29	28	1252.6825834091
5	30	29	1253.1722595494
5	31	30	1253.6720443071
6	5	4	1173.6890692934
6	6	5	1176.9304359797
6	7	6	1182.1469014152
6	8	7	1189.277117815
6	9	8	1198.4713952224
6	10	9	1209.8483345196
6	11	10	1223.2970103491
6	12	11	1237.5342411752
6	13	12	1251.7585789379
6	14	13	1265.9940521252
6	15	14	1280.2184191847
6	16	15	1294.4507620782
6	17	16	1308.6772869716
6	18	17	1322.9100077229
6	19	18	1337.1463192144
6	20	19	1351.3930847638
6	21	20	1365.6319949054
6	22	21	1379.864474717
6	23	22	1394.0887920817
6	24	23	1408.3013955682
6	25	24	1422.5362671932
6	26	25	1436.7435991967
6	27	26	1450.956596074
6	28	27	1465.1917823717
6	29	28	1479.44745921
6	30	29	1493.7091135728
6	31	30	1507.9414183118
7	5	4	2.0351562025188
7	6	5	2.0728239309206
7	7	6	1.8459985194961
7	8	7	1.6806377231912
7	9	8	1.7988098975806
7	10	9	1.9810560159372
7	11	10	0.061173239194323
7	12	11	-0.055620486089028
7	13	12	-0.066165983418468
7	14	13	0.086919081138912
7	15	14	-0.055021906716284
7	16	15	-1.0667152242058
7	17	16	-4.5
7	18	17	-3.08
7	19	18	-2.7838188203738
7	20	19	0.57896004683105
7	21	20	2.0306479798839
7	22	21	2.057608204328
7	23	22	2.0855897961231
7	24	23	1.8179767637514
7	25	24	2.0004713718919
7	26	25	0.8951480868608
7	27	26	-0.028667865144088
7	28	27	0.084071486941538
7	29	28	-0.11067502447637
7	30	29	0.11056981048314
7	31	30	-0.11119982218836
8	5	4	4.3946844027024
8	6	5	5.614289894367
8	7	6	6.1221580277929
8	8	7	6.5409263347127
8	9	8	7.8182918753039
8	10	9	9.5655338382901
8	11	10	2.4301931556581
8	12	11	1.9882929325419
8	13	12	1.9425507484042
8	14	13	2.5216358992566
8	15	14	1.9870619227446
8	16	15	0.973
8	17	16	0.973
8	18	17	0.973
8	19	18	0.973
8	20	19	1.9746343717134
8	21	20	4.6787474026819
8	22	21	5.8744419811233
8	23	22	7.1361047855132
8	24	23	7.3965736570397
8	25	24	9.1114731523828
8	26	25	5.5275893418632
8	27	26	2.0857058967821
8	28	27	2.5159143241942
8	29	28	1.7786864136037
8	30	29	2.614890444587
8	31	30	1.7766850380551
9	5	4	4.1428915371655
9	6	5	5.9478531782331
9	7	6	7.8491469426502
9	8	7	9.885760044167
9	9	8	11.814859634864
9	10	9	13.855067155604
9	11	10	14.503334607185
9	12	11	14.507502165359
9	13	12	14.557432825662
9	14	13	14.522982592642
9	15	14	14.555736262832
9	16	15	14.502017466425
9	17	16	14.490246323456
9	18	17	14.43792085535
9	19	18	14.478270551573
9	20	19	14.483572212231
9	21	20	14.526973104269
9	22	21	14.520585214665
9	23	22	14.544858397587
9	24	23	14.508791521503
9	25	24	14.474584509196
9	26	25	14.483879963711
9	27	26	14.544226177318
9	28	27	14.539673528819
9	29	28	14.524883949467
9	30	29	14.530611679153
9	31	30	10.659452661154
10	6	5	1258.254552789
10	7	6	1258.2412208727
10	8	7	1258.220379173
10	9	8	1258.1916300193
10	10	9	1258.1551073671
10	11	10	1258.1109408844
10	12	11	1258.0626260989
10	13	12	1257.0034618776
10	14	13	1251.0685847345
10	15	14	1243.0040938655
10	16	15	1232.8002183588
10	17	16	1220.6487289559
10	18	17	1206.8010876899
10	19	18	1192.7619843537
10	20	19	1178.7284496267
10	21	20	1164.6834287963
10	22	21	1150.6573962427
10	23	22	1136.6263377196
10	24	23	1122.5576657515
10	25	24	1108.5352192542
10	26	25	1094.4941626157
10	27	26	1080.4724479602
10	28	27	1066.4955386895
10	29	28	1055.5210154192
10	30	29	1048.2064479981
10	31	30	1039.6165148386
11	6	5	2133.1662169838
11	7	6	2136.407205849
11	8	7	2141.4738230525
11	9	8	2148.4627423168
11	10	9	2157.3413990491
11	11	10	2168.0782709968
11	12	11	2178.5883109846
11	13	12	2185.3044586526
11	14	13	2187.3590060183
11	15	14	2187.4699096923
11	16	15	2187.6043847615
11	17	16	2187.7645270894
11	18	17	2187.9470227026
11	19	18	2188.1279368194
11	20	19	2188.3106030892
11	21	20	2188.4934188668
11	22	21	2188.6739481331
11	23	22	2188.8592738121
11	24	23	2189.0457088127
11	25	24	2189.2269350912
11	26	25	2189.4128013774
11	27	26	2189.5984116271
11	28	27	2189.7824933659
11	29	28	2188.5480838537
11	30	29	2188.4307482684
11	31	30	2188.5486178923
12	6	5	1.8049616410676
12	7	6	1.9012937644171
12	8	7	2.0366131015168
12	9	8	1.9290995906969
12	10	9	2.0402075207396
12	11	10	0.6482674515819
12	12	11	0.0041675581736484
12	13	12	0.049930660303216
12	14	13	-0.034450233019887
12	15	14	0.032753670189996
12	16	15	-0.053718796407338
12	17	16	-0.011771142969375
12	18	17	-0.052325468105263
12	19	18	0.040349696222693
12	20	19	0.0053016606578602
12	21	20	0.043400892037898
12	22	21	-0.0063878896040848
12	23	22	0.024273182922043
12	24	23	-0.036066876084078
12	25	24	-0.034207012306434
12	26	25	0.0092954545142145
12	27	26	0.060346213607117
12	28	27	-0.0045526484982119
12	29	28	-0.014789579352364
12	30	29	0.0057277296856046
12	31	30	-3.8711590179988
13	6	5	4.003653406223
13	7	6	5.1298870566123
13	8	7	6.5283038577894
13	9	8	7.3251862717174
13	10	9	8.8364628720991
13	11	10	4.3573553534207
13	12	11	2.1064788967904
13	13	12	2.2724126880103
13	14	13	1.972981363801
13	15	14	2.2119550814255
13	16	15	1.9035770030377
13	17	16	2.0489635114435
13	18	17	1.9024436001353
13	19	18	2.2295868101462
13	20	19	2.1078656200203
13	21	20	2.2459308848154
13	22	21	2.0709485855072
13	23	22	2.1809794869588
13	24	23	1.9659331254678
13	25	24	1.9690773227052
13	26	25	2.1218395480197
13	27	26	2.3073499158391
13	28	27	2.0793876817023
13	29	28	2.0419905132825
13	30	29	2.1144305265981
13	31	30	0.973
14	6	5	4.2021235975773
14	7	6	6.1258346802659
14	8	7	8.0539288578659
14	9	8	10.254206708503
14	10	9	12.317758484568
14	11	10	14.240412943369
14	12	11	14.214995911914
14	13	12	14.232364979988
14	14	13	14.18210722766
14	15	14	14.253277960311
14	16	15	14.179918275653
14	17	16	14.268000696363
14	18	17	14.248717577253
14	19	18	14.197931519578
14	20	19	14.271073172417
14	21	20	14.241474123198
14	22	21	14.291432808536
14	23	22	14.276273541237
14	24	23	14.244104073763
14	25	24	14.278038884912
14	26	25	14.185305529477
14	27	26	14.189565112643
14	28	27	14.270026618592
14	29	28	14.306077650628
14	30	29	14.296262848758
14	31	30	14.24927566436
15	7	6	381.36669676011
15	8	7	381.32984577073
15	9	8	381.26997060945
15	10	9	381.18622906179
15	11	10	381.07747735183
15	12	11	380.94464747652
15	13	12	380.79988375105
15	14	13	380.65513795456
15	15	14	380.5104358716
15	16	15	380.36572057277
15	17	16	380.22076371797
15	18	17	380.07609351915
15	19	18	379.93122516051
15	20	19	379.78678085241
15	21	20	379.64209341195
15	22	21	379.49756234342
15	23	22	379.36780875031
15	24	23	379.29039305801
15	25	24	377.73881031284
15	26	25	376.08676803312
15	27	26	376.13850105207
15	28	27	376.21812967966
15	29	28	376.31698304326
15	30	29	376.44092840244
15	31	30	376.58395881517
16	7	6	1978.8094788926
16	8	7	1975.7024086178
16	9	8	1970.6540683443
16	10	9	1963.5934472357
16	11	10	1954.4241084733
16	12	11	1943.2246328528
16	13	12	1931.0189614225
16	14	13	1918.8148016635
16	15	14	1906.6143275865
16	16	15	1894.4127392209
16	17	16	1882.1907842
16	18	17	1869.9929984158
16	19	18	1857.7785048992
16	20	19	1845.5997649636
16	21	20	1833.4005254605
16	22	21	1821.211691165
16	23	22	1810.1892219006
16	24	23	1803.4420041139
16	25	24	1800.7494051564
16	26	25	1803.1499518337
16	27	26	1807.8099199537
16	28	27	1814.4538089893
16	29	28	1822.882003204
16	30	29	1833.3330247792
16	31	30	1845.3932901987
17	7	6	1.9237110826885
17	8	7	1.9280941776
17	9	8	2.2002778506372
17	10	9	2.0635517760646
17	11	10	1.9226544588011
17	12	11	-0.025417031454854
17	13	12	0.017369068074039
17	14	13	-0.050257752328179
17	15	14	0.071170732651371
17	16	15	-0.073359684657772
17	17	16	0.088082420709544
17	18	17	-0.01928311910946
17	19	18	-0.050786057675722
17	20	19	0.073141652839258
17	21	20	-0.029599049219396
17	22	21	0.049958685338497
17	23	22	-0.015159267298877
17	24	23	-0.032169467473869
17	25	24	0.033934811148793
17	26	25	-0.092733355434611
17	27	26	0.0042595831654033
17	28	27	0.080461505949497
17	29	28	0.036051032035612
17	30	29	-0.0098148018703803
17	31	30	-0.046987184397876
18	7	6	4.2667710509387
18	8	7	5.2892072339454
18	9	8	7.1417344561247
18	10	9	8.0026772397983
18	11	10	8.6621634607972
18	12	11	1.9740036030884
18	13	12	2.1224652677406
18	14	13	1.8858782090533
18	15	14	2.3095482346543
18	16	15	1.8067295046106
18	17	16	2.3694930917252
18	18	17	1.9983801606973
18	19	18	1.8855252518872
18	20	19	2.3184937005978
18	21	20	1.962250759489
18	22	21	2.2411379279158
18	23	22	2.0153233138061
18	24	23	1.9536829148591
18	25	24	2.1844348359266
18	26	25	1.7409624867331
18	27	26	2.0729957008456
18	28	27	2.3435392353709
18	29	28	2.1949002065903
18	30	29	2.0357590401583
18	31	30	1.9032980417197
19	7	6	4.1008792609036
19	8	7	5.961071395745
19	9	8	7.8103298006011
19	10	9	9.67891081239
19	11	10	11.628921214921
19	12	11	8.6104812327332
19	13	12	6.5198938578909
19	14	13	6.9830351182452
19	15	14	8.9900734370814
19	16	15	11.142629960338
19	17	16	13.022835181985
19	18	17	13.983252953731
19	19	18	14.063249030984
19	20	19	14.049223241922
19	21	20	14.09718683149
19	22	21	14.039431502288
19	23	22	13.975413627683
19	24	23	14.037567539983
19	25	24	13.989006442348
19	26	25	14.101070420344
19	27	26	14.030355923064
19	28	27	13.58272899523
19	29	28	9.0833590106491
19	30	29	7.4233590106491
19	31	30	9.5599071355547
20	8	7	782.99053919508
20	9	8	782.94896945426
20	10	9	782.88318199402
20	11	10	782.79473599563
20	12	11	782.68098745245
20	13	12	782.54264213234
20	14	13	782.37916619521
20	15	14	782.19493079592
20	16	15	781.99188199203
20	17	16	781.78666231067
20	18	17	781.58118521486
20	19	18	781.3758135877
20	20	19	781.17046451703
20	21	20	780.97485693554
20	22	21	780.8315209657
20	23	22	780.73738779969
20	24	23	777.4313277355
20	25	24	769.11851804629
20	26	25	759.03377565065
20	27	26	746.93050707109
20	28	27	732.88766513533
20	29	28	717.13016904085
20	30	29	701.12349807678
20	31	30	685.13859214758
21	8	7	1772.4696910051
21	9	8	1769.2312448207
21	10	9	1764.1061431147
21	11	10	1757.2158522361
21	12	11	1748.3543936758
21	13	12	1737.576749524
21	14	13	1724.8413315392
21	15	14	1710.4886698652
21	16	15	1694.6703700343
21	17	16	1678.6829503162
21	18	17	1662.6754770002
21	19	18	1646.676220107
21	20	19	1630.6787204531
21	21	20	1615.4401210917
21	22	21	1604.2736857121
21	23	22	1596.8936361756
21	24	23	1589.3826395987
21	25	24	1587.0183068851
21	26	25	1587.1576003268
21	27	26	1587.3200603078
21	28	27	1587.5085548304
21	29	28	1587.7203700026
21	30	29	1587.9398126188
21	31	30	1588.156694955
22	8	7	1.8601921348413
22	9	8	1.8492584048561
22	10	9	1.8685810117889
22	11	10	1.9500104025309
22	12	11	-3.0184399821877
22	13	12	-2.0905873748423
22	14	13	0.46314126035431
22	15	14	2.0070383188361
22	16	15	2.1525565232569
22	17	16	1.8802052216465
22	18	17	0.96041777174608
22	19	18	0.079996077253018
22	20	19	-0.014025789061561
22	21	20	0.047963589567226
22	22	21	-0.057755329201465
22	23	22	-0.064017874605488
22	24	23	0.06215391230071
22	25	24	-0.048561097634956
22	26	25	0.11206397799542
22	27	26	-0.070714497279841
22	28	27	-0.44762692783436
22	29	28	-4.4993699845805
22	30	29	-1.66
22	31	30	2.1365481249057
23	8	7	4.0895159373932
23	9	8	5.0116229381608
23	10	9	6.0193584237935
23	11	10	7.2812948693241
23	12	11	0.973
23	13	12	0.973
23	14	13	2.2577434861693
23	15	14	5.9592674320966
23	16	15	7.5557408643583
23	17	16	7.8432796120425
23	18	17	5.2737044569059
23	19	18	2.3164760811723
23	20	19	1.9964159367531
23	21	20	2.2118042970549
23	22	21	1.8474824027056
23	23	22	1.82071145953
23	24	23	2.252976036312
23	25	24	1.8740041462938
23	26	25	2.4300865483668
23	27	26	1.8028564457058
23	28	27	0.973
23	29	28	0.973
23	30	29	0.973
23	31	30	6.5743547044988
24	8	7	3.9783934193249
24	9	8	5.8964066619617
24	10	9	8.1138163606478
24	11	10	10.051433725651
24	12	11	12.145282483208
24	13	12	12.150873254699
24	14	13	12.205835871913
24	15	14	12.220633989834
24	16	15	12.138575011713
24	17	16	12.232924933483
24	18	17	12.262776347646
24	19	18	12.242422074832
24	20	19	12.140385917118
24	21	20	12.161679884971
24	22	21	12.222801299657
24	23	22	9.2055888778011
24	24	23	4.740013712845
24	25	24	3.199731061044
24	26	25	3.6148905378066
24	27	26	5.5775371545086
24	28	27	7.4218045913566
24	29	28	9.311185874245
24	30	29	11.35998951049
24	31	30	12.19604338245
25	9	8	1358.7662242972
25	10	9	1358.7947627353
25	11	10	1358.8412171135
25	12	11	1358.9057636618
25	13	12	1358.9878663905
25	14	13	1359.0885980807
25	15	14	1359.2047930363
25	16	15	1359.3247553927
25	17	16	1359.4446756335
25	18	17	1359.5646140873
25	19	18	1359.6844812008
25	20	19	1359.804235679
25	21	20	1359.9237115144
25	22	21	1360.0183413045
25	23	22	1360.0693269128
25	24	23	1362.3992051736
25	25	24	1363.2538153507
25	26	25	1363.2093256142
25	27	26	1363.1440513204
25	28	27	1363.0599661824
25	29	28	1362.9589755564
25	30	29	1362.8422224053
25	31	30	1362.7223527464
26	9	8	2039.0101783718
26	10	9	2042.1217462316
26	11	10	2047.1867028163
26	12	11	2054.2242626333
26	13	12	2063.1759863019
26	14	13	2074.1588399678
26	15	14	2086.827665362
26	16	15	2099.9072533543
26	17	16	2112.9822494507
26	18	17	2126.0592313288
26	19	18	2139.1284349227
26	20	19	2152.1853578064
26	21	20	2165.2119000426
26	22	21	2175.5875913221
26	23	22	2181.5019218853
26	24	23	2183.0014073486
26	25	24	2179.6798832415
26	26	25	2174.5164711955
26	27	26	2167.3995647333
26	28	27	2158.2316974605
26	29	28	2147.2206118208
26	30	29	2134.4909259451
26	31	30	2121.4214448272
27	9	8	1.9180132426368
27	10	9	2.2174096986861
27	11	10	1.9376173650031
27	12	11	2.0938487575576
27	13	12	0.0055907714900911
27	14	13	0.05496261721477
27	15	14	0.014798117920289
27	16	15	-0.08205897812033
27	17	16	0.094349921769462
27	18	17	0.029851414163131
27	19	18	-0.020354272814002
27	20	19	-0.10203615771374
27	21	20	0.021293967852834
27	22	21	0.061121414685623
27	23	22	-3.0172124218555
27	24	23	-4.4655751649562
27	25	24	-1.540282651801
27	26	25	0.41515947676264
27	27	26	1.962646616702
27	28	27	1.844267436848
27	29	28	1.8893812828884
27	30	29	2.0488036362454
27	31	30	0.83605387195995
28	9	8	4.1389427359396
28	10	9	5.886744953391
28	11	10	6.3823684436662
28	12	11	7.9901101931499
28	13	12	1.8782576435012
28	14	13	2.028474755143
28	15	14	1.9117049745723
28	16	15	1.6207348243207
28	17	16	2.147380391013
28	18	17	1.960125898308
28	19	18	1.8100226767031
28	20	19	1.5624104369333
28	21	20	1.9252616060542
28	22	21	2.0483612818559
28	23	22	0.973
28	24	23	0.973
28	25	24	0.973
28	26	25	1.6504282637783
28	27	26	4.0332521556871
28	28	27	4.8045518751304
28	29	28	5.8735093035856
28	30	29	7.4025607400265
28	31	30	4.3232883630873
29	9	8	4.1442402827533
29	10	9	5.8915676549313
29	11	10	7.8039782132468
29	12	11	9.7010756855787
29	13	12	11.716744567731
29	14	13	13.479869623636
29	15	14	15.071967989316
29	16	15	16.017967027917
29	17	16	15.987586004553
29	18	17	16.022800311172
29	19	18	15.949243780408
29	20	19	15.992320234529
29	21	20	13.642374746694
29	22	21	9.1454995012157
29	23	22	7.4854995012157
29	24	23	8.8203396901836
29	25	24	9.114269564473
29	26	25	10.937012537082
29	27	26	12.987019744376
29	28	27	14.892717162475
29	29	28	15.947114699532
29	30	29	15.959919194128
29	31	30	15.931725739704
30	10	9	381.36692977865
30	11	10	381.32897970034
30	12	11	381.26707471531
30	13	12	381.18412328277
30	14	13	381.0788348313
30	15	14	380.95512449559
30	16	15	380.82982760904
30	17	16	380.70470597573
30	18	17	380.57953308111
30	19	18	380.45448308013
30	20	19	380.32887140678
30	21	20	380.20362487816
30	22	21	380.07854913693
30	23	22	379.95323607416
30	24	23	379.82812159324
30	25	24	379.70295984784
30	26	25	379.58856022327
30	27	26	379.47593963452
30	28	27	379.35766168572
30	29	28	379.2876618763
30	30	29	377.95388301229
30	31	30	376.08
31	10	9	1978.8291257185
31	11	10	1975.629386384
31	12	11	1970.4099026718
31	13	12	1963.4158996718
31	14	13	1954.5385635858
31	15	14	1944.1079967748
31	16	15	1933.5436608304
31	17	16	1922.9941012626
31	18	17	1912.4402196273
31	19	18	1901.8966996992
31	20	19	1891.3058226842
31	21	20	1880.7457326399
31	22	21	1870.2000424372
31	23	22	1859.6343426029
31	24	23	1849.0853860854
31	25	24	1838.5324444899
31	26	25	1828.8869050106
31	27	26	1819.3639324048
31	28	27	1809.352089072
31	29	28	1803.1918278688
31	30	29	1800.8569415061
31	31	30	1802.3868641398
32	10	9	1.747327372178
32	11	10	1.9124105583155
32	12	11	1.897097472332
32	13	12	2.0156688821525
32	14	13	1.763125055905
32	15	14	1.5920983656798
32	16	15	0.94599903860138
32	17	16	-0.030381023364608
32	18	17	0.035214306619018
32	19	18	-0.073556530764327
32	20	19	0.04307645412162
32	21	20	-2.3499454878355
32	22	21	-4.496875245478
32	23	22	-1.66
32	24	23	1.334840188968
32	25	24	0.29392987428931
32	26	25	1.8227429726091
32	27	26	2.0500072072935
32	28	27	1.9056974180997
32	29	28	1.0543975370569
32	30	29	0.012804494595622
32	31	30	-0.028193454423453
33	10	9	3.8940745542467
33	11	10	5.1271524920943
33	12	11	6.0976562181216
33	13	12	7.5155227847418
33	14	13	7.7143140727487
33	15	14	7.9364090391561
33	16	15	5.9142352797386
33	17	16	2.1416866560471
33	18	17	2.398923563469
33	19	18	1.9714516023695
33	20	19	2.4253319060891
33	21	20	0.973
33	22	21	0.973
33	23	22	0.973
33	24	23	4.4363566155712
33	25	24	2.2652428264356
33	26	25	6.5628800746192
33	27	26	8.3551025568123
33	28	27	8.9733854741553
33	29	28	6.3062512707777
33	30	29	2.3047043461973
33	31	30	2.1438570671674
34	10	9	4.0030390066499
34	11	10	5.9317955545787
34	12	11	7.918152436871
34	13	12	9.8067787985023
34	14	13	11.837662497422
34	15	14	13.111114107098
34	16	15	13.047208485366
34	17	16	13.082858300235
34	18	17	13.050442139584
34	19	18	13.066969914379
34	20	19	13.077502230213
34	21	20	12.790822598931
34	22	21	8.3949260557224
34	23	22	3.90073027342
34	24	23	3.3222197974301
34	25	24	4.183323180195
34	26	25	6.0468133754367
34	27	26	7.9881397579112
34	28	27	10.043342921558
34	29	28	11.871750526427
34	30	29	13.02620708515
34	31	30	13.053027748128
35	11	10	236.52057292628
35	12	11	236.5547996709
35	13	12	236.60947214941
35	14	13	236.68839721122
35	15	14	236.79152040599
35	16	15	236.91814677876
35	17	16	240.26786961776
35	18	17	240.44181531454
35	19	18	240.63599711223
35	20	19	240.85042427687
35	21	20	241.08728701894
35	22	21	241.34498240976
35	23	22	241.6202170301
35	24	23	241.9384445615
35	25	24	242.28848699574
35	26	25	242.63823823677
35	27	26	242.94216041571
35	28	27	243.19291854304
35	29	28	243.40279923938
35	30	29	243.5722790577
35	31	30	243.71419773719
36	11	10	1629.3678732752
36	12	11	1632.3446440031
36	13	12	1637.0996224695
36	14	13	1643.963898236
36	15	14	1652.9327356453
36	16	15	1663.9456930266
36	17	16	1676.9339460318
36	18	17	1692.0613910694
36	19	18	1708.9486985815
36	20	19	1727.5966744027
36	21	20	1748.1957934291
36	22	21	1770.6066545959
36	23	22	1794.9205333809
36	24	23	1821.2951418358
36	25	24	1849.6090089943
36	26	25	1877.8993224211
36	27	26	1902.4826624952
36	28	27	1923.3100566981
36	29	28	1940.4072611157
36	30	29	1953.6693860143
36	31	30	1963.6867427345
37	11	10	1.9287565479288
37	12	11	1.9863568822923
37	13	12	1.8886263616313
37	14	13	2.0308836989198
37	15	14	1.2734516096764
37	16	15	-0.06390562173212
37	17	16	0.035649814868812
37	18	17	-0.032416160651483
37	19	18	0.016527774794959
37	20	19	0.010532315834425
37	21	20	-0.28667963128213
37	22	21	-4.3958965432085
37	23	22	-4.4941957823024
37	24	23	-0.5785104759899
37	25	24	0.86110338276485
37	26	25	1.8634901952418
37	27	26	1.9413263824745
37	28	27	2.0552031636471
37	29	28	1.828407604869
37	30	29	1.1544565587226
37	31	30	0.026820662978571
38	11	10	4.1727093648409
38	12	11	5.3283474101822
38	13	12	6.1338489945038
38	14	13	7.6281489855892
38	15	14	5.9745103191004
38	16	15	1.7436294538797
38	17	16	2.060381785956
38	18	17	1.8429275194846
38	19	18	1.9985080957752
38	20	19	1.9806611604669
38	21	20	0.973
38	22	21	0.973
38	23	22	0.973
38	24	23	0.973
38	25	24	2.1867144438992
38	26	25	4.1377535845591
38	27	26	5.2797641347079
38	28	27	6.6625836927172
38	29	28	7.0685024624847
38	30	29	5.5667743820331
38	31	30	2.029500111799
39	11	10	4.1246680948529
39	12	11	6.0024873077515
39	13	12	7.8563540528337
39	14	13	9.7494152446552
39	15	14	10.506022079325
39	16	15	10.596724811609
39	17	16	10.54318705564
39	18	17	10.608640149437
39	19	18	10.580253134587
39	20	19	10.599475776026
39	21	20	10.563770331811
39	22	21	10.546336287426
39	23	22	10.587051997637
39	24	23	10.614609323317
39	25	24	10.611860872627
39	26	25	8.43297925892
39	27	26	10.401838607492
39	28	27	8.6239640203106
39	29	28	4.140195130637
39	30	29	2.7219223215139
39	31	30	2.6638561906979
40	12	11	244.51465064986
40	13	12	244.56146736843
40	14	13	244.63720537981
40	15	14	244.74143455263
40	16	15	244.88097460002
40	17	16	245.0501145242
40	18	17	245.25238488817
40	19	18	245.49538159175
40	20	19	245.76995536874
40	21	20	246.07765404795
40	22	21	246.4200934207
40	23	22	246.77711652041
40	24	23	247.06434547412
40	25	24	247.27702818477
40	26	25	247.41491997635
40	27	26	249.42002700236
40	28	27	250.60525750458
40	29	28	250.49037579224
40	30	29	250.34174290108
40	31	30	250.16251584138
41	12	11	2017.5660913743
41	13	12	2020.54675579
41	14	13	2025.3724953163
41	15	14	2032.0627053469
41	16	15	2040.7784369245
41	17	16	2051.3579387989
41	18	17	2063.8112131243
41	19	18	2078.1803483298
41	20	19	2094.4988728898
41	21	20	2112.7860833751
41	22	21	2133.1380098253
41	23	22	2154.235217692
41	24	23	2171.2652834748
41	25	24	2183.821938073
41	26	25	2191.9513485517
41	27	26	2195.6957361613
41	28	27	2191.3039293438
41	29	28	2184.534045828
41	30	29	2175.7942472801
41	31	30	2165.1677119769
42	12	11	1.8778192128986
42	13	12	1.8538667450822
42	14	13	1.8930611918215
42	15	14	0.75660683466964
42	16	15	0.090702732284553
42	17	16	-0.053537755969446
42	18	17	0.065453093796968
42	19	18	-0.028387014849576
42	20	19	0.019222641438246
42	21	20	-0.0357054442144
42	22	21	-0.017434044384864
42	23	22	0.04071571021108
42	24	23	0.027557325679808
42	25	24	-0.0027484506904134
42	26	25	-2.1788816137068
42	27	26	1.9688593485719
42	28	27	-1.7778745871813
42	29	28	-4.4837688896735
42	30	29	-1.4182728091232
42	31	30	-0.058066130816005
43	12	11	4.1359908757567
43	13	12	5.0438628459669
43	14	13	6.1138723716189
43	15	14	3.639626386731
43	16	15	1.9627463806096
43	17	16	1.5908339134809
43	18	17	1.8993975553763
43	19	18	1.6574200065796
43	20	19	1.7804308438048
43	21	20	1.6375953271438
43	22	21	1.6828058578585
43	23	22	1.8342267172287
43	24	23	1.8030239952663
43	25	24	1.7252815941396
43	26	25	0.973
43	27	26	6.6513749745949
43	28	27	0.973
43	29	28	0.973
43	30	29	0.973
43	31	30	1.2029728298981
44	12	11	3.7839128130107
44	13	12	5.6414378148844
44	14	13	7.8295522944015
44	15	14	9.9373222141961
44	16	15	11.894249758189
44	17	16	13.969263360495
44	18	17	16.034978353727
44	19	18	17.67002302925
44	20	19	19.513552418697
44	21	20	21.393398635331
44	22	21	23.319205983013
44	23	22	25.293551367758
44	24	23	27.283958790201
44	25	24	29.141819106247
44	26	25	26.748181650108
44	27	26	22.846027294868
44	28	27	19.188366958098
44	29	28	15.445325592061
44	30	29	12.018787658416
44	31	30	8.8243276896662
45	13	12	382.44463206218
45	14	13	382.4074960516
45	15	14	382.34652865885
45	16	15	382.26346383271
45	17	16	382.15739775694
45	18	17	382.02873624184
45	19	18	381.88119278747
45	20	19	381.77261456299
45	21	20	381.71727190573
45	22	21	381.70953571454
45	23	22	381.70953571454
45	24	23	381.70953571454
45	25	24	381.70953571454
45	26	25	381.70953571454
45	27	26	381.70953571454
45	28	27	381.70953571454
45	29	28	381.70953571454
45	30	29	381.70953571454
45	31	30	381.70953571454
46	13	12	2069.3958623651
46	14	13	2066.3487549704
46	15	14	2061.346219955
46	16	15	2054.3780560538
46	17	16	2045.4319911383
46	18	17	2034.580130562
46	19	18	2022.1356867466
46	20	19	2012.9777365013
46	21	20	2008.3094760339
46	22	21	2007.655767879
46	23	22	2007.655767879
46	24	23	2007.655767879
46	25	24	2007.655767879
46	26	25	2007.655767879
46	27	26	2007.655767879
46	28	27	2007.655767879
46	29	28	2007.655767879
46	30	29	2007.655767879
46	31	30	2007.655767879
47	13	12	1.8575250018737
47	14	13	2.1881144795171
47	15	14	2.1077699197945
47	16	15	1.9569275439926
47	17	16	2.0750136023061
47	18	17	2.0657149932324
47	19	18	1.635044675523
47	20	19	1.8435293894471
47	21	20	1.8798462166335
47	22	21	1.9258073476819
47	23	22	1.9743453847454
47	24	23	1.9904074224434
47	25	24	1.8578603160451
47	26	25	-2.3936374561386
47	27	26	-3.9021543552401
47	28	27	-3.6576603367701
47	29	28	-3.7430413660367
47	30	29	-3.4265379336455
47	31	30	-3.1944599687493
48	13	12	3.9241949181054
48	14	13	5.6608379314147
48	15	14	6.7279160490762
48	16	15	7.4487867253581
48	17	16	9.021424165678
48	18	17	10.247208829485
48	19	18	9.4348637796422
48	20	19	11.407428357274
48	21	20	12.738652958273
48	22	21	14.229241966619
48	23	22	15.86013418693
48	24	23	17.390238842151
48	25	24	17.85013026718
48	26	25	0.973
48	27	26	0.973
48	28	27	0.973
48	29	28	0.973
48	30	29	0.973
48	31	30	0.973
49	13	12	3.8145612137869
49	14	13	5.5700777220668
49	15	14	7.6250468252727
49	16	15	9.5346134661941
49	17	16	11.408156323106
49	18	17	13.244633701042
49	19	18	15.27709312383
49	20	19	17.220579931432
49	21	20	19.164231973925
49	22	21	21.322198756974
49	23	22	19.497005517378
49	24	23	15.020880074759
49	25	24	10.534782074388
49	26	25	6.7447820743877
49	27	26	4.5275224498998
49	28	27	5.684451884745
49	29	28	7.6669583964174
49	30	29	9.5999832531962
49	31	30	11.408561146691
50	14	13	398.24364519058
50	15	14	398.27108062771
50	16	15	398.31532146342
50	17	16	398.38011340138
50	18	17	398.46377951832
50	19	18	398.56462927416
50	20	19	398.68119944297
50	21	20	398.80280673177
50	22	21	398.92443502448
50	23	22	399.04596900485
50	24	23	399.16760646358
50	25	24	399.2892966023
50	26	25	399.41075967756
50	27	26	399.53237124218
50	28	27	399.67895649179
50	29	28	399.84791883437
50	30	29	400.01677117331
50	31	30	400.18580153803
51	14	13	3671.8457031297
51	15	14	3675.0092200725
51	16	15	3680.1105287438
51	17	16	3687.1048539732
51	18	17	3696.0887503253
51	19	18	3706.9177906432
51	20	19	3719.4348567232
51	21	20	3732.4927984346
51	22	21	3745.5529955029
51	23	22	3758.6030655053
51	24	23	3771.6642468017
51	25	24	3784.7310847684
51	26	25	3797.7735411255
51	27	26	3810.8319419649
51	28	27	3823.8960324017
51	29	28	3836.9562432847
51	30	29	3850.007951263
51	31	30	3863.0734200251
52	14	13	1.7555165082798
52	15	14	2.0549691032059
52	16	15	1.9095666409214
52	17	16	1.8735428569117
52	18	17	1.8364773779362
52	19	18	2.0324594227876
52	20	19	1.9434868076025
52	21	20	1.9436520424928
52	22	21	2.1579667830491
52	23	22	-1.8251932395962
52	24	23	-4.4761254426188
52	25	24	-4.4860980003712
52	26	25	-3.79
52	27	26	-2.217259624488
52	28	27	1.1569294348452
52	29	28	1.9825065116724
52	30	29	1.9330248567788
52	31	30	1.8085778934951
53	14	13	3.7512506689314
53	15	14	5.2950724161047
53	16	15	6.0379041255532
53	17	16	6.9485412296209
53	18	17	7.8255084898138
53	19	18	9.6594125075741
53	20	19	10.478255982061
53	21	20	11.66159479489
53	22	21	14.123124981662
53	23	22	0.973
53	24	23	0.973
53	25	24	0.973
53	26	25	0.973
53	27	26	0.973
53	28	27	2.9861251037582
53	29	28	5.1846380677229
53	30	29	6.1270721921762
53	31	30	6.7701393690308
54	14	13	3.8471656862969
54	15	14	5.9193244898991
54	16	15	7.9385105367258
54	17	16	9.7900967992071
54	18	17	11.771570581987
54	19	18	11.616828613387
54	20	19	7.1399930485503
54	21	20	2.6434504304665
54	22	21	0
54	23	22	0
54	24	23	0
54	25	24	0
54	26	25	0
54	27	26	0
54	28	27	0
54	29	28	0
54	30	29	0
54	31	30	0
55	15	14	1844.2469324209
55	16	15	1841.1333498759
55	17	16	1836.1019044401
55	18	17	1829.0297685759
55	19	18	1819.9509326425
55	20	19	1808.9253747696
55	21	20	1796.2595769634
55	22	21	1783.3961420095
55	23	22	1770.5205208984
55	24	23	1757.6423219298
55	25	24	1744.7472997065
55	26	25	1731.8724775342
55	27	26	1719.0092799502
55	28	27	1706.1331841317
55	29	28	1693.2564696481
55	30	29	1680.3966236706
55	31	30	1667.5075783354
56	15	14	1572.4135170158
56	16	15	1572.455778395
56	17	16	1572.5240713728
56	18	17	1572.6200631159
56	19	18	1572.7432922653
56	20	19	1572.895098279
56	21	20	1573.0693349732
56	22	21	1573.245036263
56	23	22	1573.4208658339
56	24	23	1573.596730608
56	25	24	1573.7728251207
56	26	25	1573.9453149263
56	27	26	1574.1173607204
56	28	27	1574.2932753917
56	29	28	1574.4691985153
56	30	29	1574.6448911794
56	31	30	1574.8209827685
57	15	14	2.0721588036022
57	16	15	2.0191860468267
57	17	16	1.8515862624813
57	18	17	1.9814737827796
57	19	18	-0.1547419685995
57	20	19	-4.4768355648369
57	21	20	-4.4965426180838
57	22	21	-2.6434504304665
57	23	22	0
57	24	23	0
57	25	24	0
57	26	25	0
57	27	26	0
57	28	27	0
57	29	28	0
57	30	29	0
57	31	30	0
58	15	14	4.3707609975622
58	16	15	5.4022379328848
58	17	16	6.0376145198561
58	18	17	7.4498867092192
58	19	18	1.3819938780296
58	20	19	0.973
58	21	20	0.973
58	22	21	0.973
58	23	22	0.973
58	24	23	0.973
58	25	24	0.973
58	26	25	0.973
58	27	26	0.973
58	28	27	0.973
58	29	28	0.973
58	30	29	0.973
58	31	30	0.973
59	15	14	4.045239251217
59	16	15	5.9295127965749
59	17	16	7.8488649446198
59	18	17	9.8683709802718
59	19	18	11.639638783415
59	20	19	13.117515472676
59	21	20	13.125149918981
59	22	21	13.084226816783
59	23	22	13.041310774409
59	24	23	13.079066225541
59	25	24	13.050490643666
59	26	25	13.011899713976
59	27	26	13.033754822218
59	28	27	13.082286373791
59	29	28	13.072127945434
59	30	29	13.0579812846
59	31	30	13.037322264919
60	16	15	649.64481221184
60	17	16	649.60757071806
60	18	17	649.54651435642
60	19	18	649.46261822101
60	20	19	649.35630307279
60	21	20	649.22568481768
60	22	21	649.07107398943
60	23	22	648.89159629617
60	24	23	648.68940205197
60	25	24	648.46337265787
60	26	25	648.21247832403
60	27	26	647.95060297013
60	28	27	647.73689843135
60	29	28	647.57763139148
60	30	29	647.47479804601
60	31	30	650.58903997316
61	16	15	1774.4480035331
61	17	16	1771.3958861784
61	18	17	1766.3920272553
61	19	18	1759.5163403568
61	20	19	1750.8033088436
61	21	20	1740.0985222523
61	22	21	1727.4274303012
61	23	22	1712.7183806161
61	24	23	1696.1476016531
61	25	24	1677.6234189111
61	26	25	1657.0614362208
61	27	26	1635.599506765
61	28	27	1618.0854044733
61	29	28	1605.0327138571
61	30	29	1596.4714324455
61	31	30	1592.0777462889
62	16	15	1.8842735453579
62	17	16	1.9193521480449
62	18	17	2.019506035652
62	19	18	1.7712678031437
62	20	19	1.4778766892608
62	21	20	0.0076344463042908
62	22	21	-0.040923102197702
62	23	22	-0.042916042373982
62	24	23	0.037755451132544
62	25	24	-0.02857558187563
62	26	25	-0.038590929689816
62	27	26	0.021855108242015
62	28	27	0.04853155157296
62	29	28	-0.010158428356517
62	30	29	-0.014146660834085
62	31	30	-0.020659019681625
63	16	15	4.1079491275097
63	17	16	5.1638982367271
63	18	17	6.4777745565937
63	19	18	6.7858503436254
63	20	19	6.6233421666
63	21	20	1.9761807579628
63	22	21	1.819067206373
63	23	22	1.8091269928545
63	24	23	2.0666235324311
63	25	24	1.8550110362159
63	26	25	1.8201922329976
63	27	26	2.011939627969
63	28	27	2.1009360933151
63	29	28	1.9149498821179
63	30	29	1.9010819966332
63	31	30	1.8787193481129
64	16	15	3.9939830188786
64	17	16	5.8682106915542
64	18	17	7.9444723628095
64	19	18	10.038760470623
64	20	19	11.890200694018
64	21	20	12.941020193981
64	22	21	12.815870323366
64	23	22	12.943713647836
64	24	23	12.872962151275
64	25	24	12.929512500303
64	26	25	12.870410835872
64	27	26	12.836776102905
64	28	27	12.83414431583
64	29	28	12.828212022095
64	30	29	12.89814748752
64	31	30	12.92415529063
65	17	16	243.70849306361
65	18	17	243.75457020071
65	19	18	243.82931210188
65	20	19	243.92989833035
65	21	20	244.02504380452
65	22	21	244.05786249061
65	23	22	244.0578636261
65	24	23	244.0578636261
65	25	24	244.0578636261
65	26	25	244.0578636261
65	27	26	244.0578636261
65	28	27	244.0578636261
65	29	28	244.0578636261
65	30	29	244.0578636261
65	31	30	244.0578636261
66	17	16	1963.290267921
66	18	17	1966.4926289496
66	19	18	1971.6871910806
66	20	19	1978.6779339595
66	21	20	1985.2905444144
66	22	21	1987.50892438
66	23	22	1987.5089993226
66	24	23	1987.5089993226
66	25	24	1987.5089993226
66	26	25	1987.5089993226
66	27	26	1987.5089993226
66	28	27	1987.5089993226
66	29	28	1987.5089993226
66	30	29	1987.5089993226
66	31	30	1987.5089993226
67	17	16	1.8742276726756
67	18	17	2.0762616712553
67	19	18	2.0942881078133
67	20	19	1.8514402233949
67	21	20	1.0508194999629
67	22	21	-0.12514987061499
67	23	22	0.12784332446987
67	24	23	-0.070751496560405
67	25	24	0.056550349027384
67	26	25	-0.059101664430928
67	27	26	-0.033634732966311
67	28	27	-0.0026317870756607
67	29	28	-0.0059322937345136
67	30	29	0.069935465424788
67	31	30	0.026007803110405
68	17	16	4.0623555906792
68	18	17	5.5148089091159
68	19	18	6.7545247064364
68	20	19	7.1442451170506
68	21	20	5.2117623486038
68	22	21	1.5361506525647
68	23	22	2.3335352501069
68	24	23	1.7085577892645
68	25	24	2.1096041864993
68	26	25	1.7444961584424
68	27	26	1.8205987624045
68	28	27	1.9162659799712
68	29	28	1.9055090493831
68	30	29	2.1478210832384
68	31	30	2.0138931267267
69	17	16	3.887992514905
69	18	17	5.8368831265624
69	19	18	7.7638066374091
69	20	19	9.5785842829849
69	21	20	11.569812023176
69	22	21	13.659330730312
69	23	22	15.565114561478
69	24	23	17.403202915827
69	25	24	19.468718548561
69	26	25	21.535698968796
69	27	26	19.979405637618
69	28	27	15.504070054232
69	29	28	11.036587436044
69	30	29	6.5365874360439
69	31	30	5.9100751234188
70	18	17	143.24653646251
70	19	18	143.29246187167
70	20	19	143.36014124455
70	21	20	143.45904746379
70	22	21	143.58509645181
70	23	22	143.73924129566
70	24	23	143.92202099723
70	25	24	144.1212055338
70	26	25	144.32046483588
70	27	26	144.51832912218
70	28	27	144.71452799924
70	29	28	144.91421633911
70	30	29	145.11365858441
70	31	30	145.31312444417
71	18	17	1200.8440287437
71	19	18	1204.149411605
71	20	19	1209.3645119904
71	21	20	1216.5000089763
71	22	21	1225.593695714
71	23	22	1236.7143317792
71	24	23	1249.9008029612
71	25	24	1264.2707856712
71	26	25	1278.6461622698
71	27	26	1293.0224226373
71	28	27	1307.431287145
71	29	28	1321.8263203452
71	30	29	1336.2036132036
71	31	30	1350.5826083691
72	18	17	1.9488906116574
72	19	18	1.9269235108467
72	20	19	1.8147776455758
72	21	20	1.9912277401914
72	22	21	2.0895187071362
72	23	22	1.9057838311652
72	24	23	1.8380883543496
72	25	24	2.0655156327342
72	26	25	2.0669804202346
72	27	26	-1.5562933311785
72	28	27	-4.4753355833856
72	29	28	-4.4674826181881
72	30	29	-4.5
72	31	30	-0.62651231262502
73	18	17	4.1514241793065
73	19	18	5.1331802176586
73	20	19	5.8425592214772
73	21	20	7.3633882147772
73	22	21	8.8828395828367
73	23	22	9.3581844519428
73	24	23	10.145711989085
73	25	24	12.422176784044
73	26	25	13.799401147508
73	27	26	0.973
73	28	27	0.973
73	29	28	0.973
73	30	29	0.973
73	31	30	0.973
74	18	17	4.1722761607953
74	19	18	6.0578728152453
74	20	19	7.854337016704
74	21	20	4.6933799655341
74	22	21	0.19337996553409
74	23	22	0
74	24	23	0
74	25	24	0
74	26	25	0
74	27	26	0
74	28	27	0
74	29	28	0
74	30	29	0
74	31	30	0
75	19	18	410.22744129884
75	20	19	410.19568738855
75	21	20	410.14546343089
75	22	21	410.07444455615
75	23	22	409.98424107474
75	24	23	409.87471409563
75	25	24	409.74677166763
75	26	25	409.60253072281
75	27	26	409.45521998924
75	28	27	409.30769319886
75	29	28	409.16033689201
75	30	29	409.01302744036
75	31	30	408.86571083759
76	19	18	4419.6813733719
76	20	19	4416.560417617
76	21	20	4411.624120065
76	22	21	4404.6439792328
76	23	22	4395.7782656316
76	24	23	4385.0133282565
76	25	24	4372.4384153327
76	26	25	4358.2114674622
76	27	26	4343.6044452492
76	28	27	4328.9759992979
76	29	28	4314.3644581337
76	30	29	4299.7575630338
76	31	30	4285.1499588433
77	19	18	1.8855966544501
77	20	19	1.7964642014587
77	21	20	-3.16095705117
77	22	21	-4.5
77	23	22	-0.19337996553409
77	24	23	0
77	25	24	0
77	26	25	0
77	27	26	0
77	28	27	0
77	29	28	0
77	30	29	0
77	31	30	0
78	19	18	4.1756404381622
78	20	19	4.9341728748637
78	21	20	0.973
78	22	21	0.973
78	23	22	0.973
78	24	23	0.973
78	25	24	0.973
78	26	25	0.973
78	27	26	0.973
78	28	27	0.973
78	29	28	0.973
78	30	29	0.973
78	31	30	0.973
79	19	18	4.1650434043717
79	20	19	6.1651742210092
79	21	20	7.939016483153
79	22	21	9.9362192215717
79	23	22	11.997070527663
79	24	23	14.148075364189
79	25	24	14.329807291409
79	26	25	14.391207622628
79	27	26	14.44504837649
79	28	27	14.439770355067
79	29	28	14.346571385121
79	30	29	14.337620197291
79	31	30	14.402907279037
80	20	19	671.92520808511
80	21	20	671.88810329973
80	22	21	671.82622239531
80	23	22	671.73966179511
80	24	23	671.62808209255
80	25	24	671.49046597214
80	26	25	671.33020355388
80	27	26	671.14706320303
80	28	27	670.94045275967
80	29	28	670.71046887688
80	30	29	670.4661592751
80	31	30	670.2215484544
81	20	19	3596.5092813836
81	21	20	3593.4677895479
81	22	21	3588.3953908356
81	23	22	3581.299989095
81	24	23	3572.1537630528
81	25	24	3560.873323013
81	26	25	3547.7365582621
81	27	26	3532.7244816216
81	28	27	3515.7885535419
81	29	28	3496.9366967086
81	30	29	3476.9105558337
81	31	30	3456.8597239421
82	20	19	2.0001308166375
82	21	20	1.7738422621437
82	22	21	1.9972027384187
82	23	22	2.0608513060911
82	24	23	2.1510048365267
82	25	24	0.18173192721944
82	26	25	0.061400331219192
82	27	26	0.053840753862168
82	28	27	-0.0052780214231447
82	29	28	-0.093198969946243
82	30	29	-0.0089511878299522
82	31	30	0.065287081745918
83	20	19	4.4008638973469
83	21	20	4.9331003898157
83	22	21	6.4625050076647
83	23	22	7.806779517353
83	24	23	9.3883708749069
83	25	24	2.7007058463085
83	26	25	2.2925223541946
83	27	26	2.2727013787976
83	28	27	2.0663407490441
83	29	28	1.7526238064203
83	30	29	2.0429897448028
83	31	30	2.3074232434146
84	20	19	3.9333552709927
84	21	20	5.807421273045
84	22	21	7.9449135395985
84	23	22	9.6566759667902
84	24	23	11.701198581239
84	25	24	13.363350243546
84	26	25	14.661832693185
84	27	26	14.682624371658
84	28	27	14.671689652364
84	29	28	14.594427941231
84	30	29	14.648217565658
84	31	30	14.605402022161
85	21	20	667.0939754077
85	22	21	667.05521027014
85	23	22	666.99185684515
85	24	23	666.90364183543
85	25	24	666.79000863016
85	26	25	666.65310825465
85	27	26	666.49234690861
85	28	27	666.30992783869
85	29	28	666.10372297326
85	30	29	665.87521650481
85	31	30	665.62152520468
86	21	20	3201.058978524
86	22	21	3197.8919625018
86	23	22	3192.7161441081
86	24	23	3185.5091956289
86	25	24	3176.2256433342
86	26	25	3165.0412206805
86	27	26	3151.9074156507
86	28	27	3137.004228056
86	29	28	3120.1577996978
86	30	29	3101.4893854392
86	31	30	3080.7634326167
87	21	20	1.8740660020523
87	22	21	2.1374922665535
87	23	22	1.7117624271917
87	24	23	2.0445226144488
87	25	24	1.6621516623069
87	26	25	1.2984824496396
87	27	26	0.020791678472888
87	28	27	-0.010934719294308
87	29	28	-0.077261711133179
87	30	29	0.053789624427445
87	31	30	-0.04281554349698
88	21	20	4.0311647813697
88	22	21	5.6322983646664
88	23	22	5.6427394452126
88	24	23	7.5879975030438
88	25	24	7.3281738747947
88	26	25	6.696640586924
88	27	26	2.1842657150135
88	28	27	2.0708499777949
88	29	28	1.8294524966408
88	30	29	2.2968727281878
88	31	30	1.9516729588316
89	21	20	3.884087117123
89	22	21	6.0288292857814
89	23	22	8.0029749326171
89	24	23	10.1203899058
89	25	24	12.215800222051
89	26	25	13.929751889975
89	27	26	15.923682715657
89	28	27	17.755096448978
89	29	28	19.69040705414
89	30	29	19.988701692663
89	31	30	20.069222866373
90	22	21	2.1447421686584
90	23	22	1.9741456468357
90	24	23	2.1174149731826
90	25	24	2.0954103162512
90	26	25	1.7139516679244
90	27	26	1.9939308256819
90	28	27	1.8314137333213
90	29	28	1.9353106051614
90	30	29	0.29829463852363
90	31	30	0.080521173710004
91	22	21	4.5372721141483
91	23	22	5.3509824706704
91	24	23	6.8583679572383
91	25	24	8.0365932226539
91	26	25	7.7855182787447
91	27	26	9.9030776107976
91	28	27	10.320146395409
91	29	28	11.948904889876
91	30	29	4.2490021806659
91	31	30	3.2143259871875
92	22	21	4.0331918461099
92	23	22	6.1657285433346
92	24	23	8.1122150514987
92	25	24	10.223201928087
92	26	25	12.10690331112
92	27	26	13.974953263266
92	28	27	15.731040991597
92	29	28	17.727940024912
92	30	29	19.525434435999
92	31	30	21.70655784411
93	23	22	2.1325366972247
93	24	23	1.9464865081641
93	25	24	2.1109868765878
93	26	25	1.8837013830338
93	27	26	1.8680499521457
93	28	27	1.7560877283313
93	29	28	1.9968990333146
93	30	29	1.7974944110867
93	31	30	2.1811234081118
94	23	22	4.597910949188
94	24	23	5.3561160519729
94	25	24	6.9029028492215
94	26	25	7.3541676156689
94	27	26	8.3278058131891
94	28	27	8.8861326650457
94	29	28	11.011506358501
94	30	29	11.19791169887
94	31	30	14.512004946881
8	624	31	2.2819557220644
8	625	32	0.973
8	626	33	0.973
8	627	34	0.973
8	628	35	1.4151372099089
8	629	36	5.0301903169953
8	630	37	7.0038956884407
8	631	38	7.5284406840705
8	632	39	8.0544299089122
8	633	40	9.2935888135413
8	634	41	10.307616467751
8	635	42	12.692258007208
8	636	43	12.710882007775
8	637	44	15.366321230364
8	638	45	16.308571273861
7	624	31	0.024247954648454
7	625	32	-3.1519432577069
7	626	33	-4.5
7	627	34	-0.84091193384368
7	628	35	-0.03449125137413
7	629	36	1.6722749320092
7	630	37	2.0597356032417
7	631	38	1.8721967888274
7	632	39	1.7461057971278
7	633	40	1.8163123766356
7	634	41	1.8135257953685
7	635	42	2.0594877293706
7	636	43	1.8308324989258
7	637	44	2.0654450935917
7	638	45	1.9878592245514
4	624	31	15.413963610755
4	625	32	12.262020353048
4	626	33	7.7620203530479
4	627	34	6.9211084192042
4	628	35	6.8866171678301
4	629	36	8.5588920998392
4	630	37	10.618627703081
4	631	38	12.490824491908
4	632	39	14.236930289036
4	633	40	16.053242665672
4	634	41	17.86676846104
4	635	42	19.926256190411
4	636	43	21.757088689337
4	637	44	23.822533782928
4	638	45	25.81039300748
1	624	31	1953.2477221645
1	625	32	1967.404283874
1	626	33	1977.1907570382
1	627	34	1984.2697983537
1	628	35	1988.7836890499
1	629	36	1988.9563058424
1	630	37	1989.0611151059
1	631	38	1989.1863376351
1	632	39	1989.3323682652
1	633	40	1989.4953039738
1	634	41	1989.678612842
1	635	42	1989.8819194924
1	636	43	1990.1010885556
1	637	44	1990.3487216898
1	638	45	1990.6171599648
0	624	31	902.18854455559
0	625	32	902.35555794786
0	626	33	902.47101480207
0	627	34	902.46305019495
0	628	35	898.35061744233
0	629	36	890.63402375252
0	630	37	880.89452590325
0	631	38	869.25810642412
0	632	39	855.82738307279
0	633	40	840.58652603088
0	634	41	823.53296310163
0	635	42	804.51653033955
0	636	43	783.60468685462
0	637	44	760.73305275329
0	638	45	735.81661206305
2	624	31	373.26900885199
2	625	32	376.85151824608
2	626	33	384.38493948834
2	627	34	393.6965978791
2	628	35	405.03054693391
2	629	36	418.49391438503
2	630	37	432.97894398764
2	631	38	447.48418095295
2	632	39	462.01388528795
2	633	40	476.5288465015
2	634	41	488.770976455
2	635	42	496.53848418434
2	636	43	499.8403905086
2	637	44	499.96899991313
2	638	45	499.96899991313
2	639	46	499.96899991313
2	640	47	499.96899991313
2	641	48	499.96899991313
2	642	49	499.96899991313
2	643	50	499.96899991313
2	644	51	499.96899991313
2	645	52	499.96899991313
2	646	53	499.96899991313
2	647	54	499.96899991313
2	648	55	499.96899991313
2	649	56	499.96899991313
2	650	57	499.96899991313
2	651	58	499.96899991313
2	652	59	499.96899991313
2	653	60	499.96899991313
3	624	31	1565.9227789754
3	625	32	1572.1312861505
3	626	33	1574.2329953253
3	627	34	1574.1510938649
3	628	35	1574.0577901249
3	629	36	1573.9469565107
3	630	37	1573.8277123329
3	631	38	1573.7056299579
3	632	39	1573.5844973223
3	633	40	1573.4634875986
3	634	41	1573.3614262331
3	635	42	1573.2976568129
3	636	43	1573.2701766621
3	637	44	1573.2690180188
3	638	45	1573.2690180188
3	639	46	1573.2690180188
3	640	47	1573.2690180188
3	641	48	1573.2690180188
3	642	49	1573.2690180188
3	643	50	1573.2690180188
3	644	51	1573.2690180188
3	645	52	1573.2690180188
3	646	53	1573.2690180188
3	647	54	1573.2690180188
3	648	55	1573.2690180188
3	649	56	1573.2690180188
3	650	57	1573.2690180188
3	651	58	1573.2690180188
3	652	59	1573.2690180188
3	653	60	1573.2690180188
5	624	31	1254.1728213379
5	625	32	1254.6731721554
5	626	33	1255.1727452425
5	627	34	1255.6296449047
5	628	35	1255.9345075075
5	629	36	1256.8840988553
5	630	37	1262.8243680629
5	631	38	1270.8355615977
5	632	39	1280.6170901112
5	633	40	1292.4651828486
5	634	41	1306.1930616464
5	635	42	1320.4242790328
5	636	43	1334.6752082263
5	637	44	1348.891865375
5	638	45	1363.1527239782
5	639	46	1377.3750765994
5	640	47	1391.6294980806
5	641	48	1405.8709084747
5	642	49	1420.1354257467
5	643	50	1434.3937009586
5	644	51	1448.6041051783
5	645	52	1462.8604012913
5	646	53	1477.0895131282
5	647	54	1491.3359147828
5	648	55	1505.5713201456
5	649	56	1519.8074476951
5	650	57	1534.0544399351
5	651	58	1548.29366007
5	652	59	1562.5427869704
5	653	60	1576.7750615472
6	624	31	1522.2019798781
6	625	32	1536.4504042255
6	626	33	1550.6766812468
6	627	34	1563.6877527662
6	628	35	1572.3692849653
6	629	36	1579.3032800899
6	630	37	1583.2431420935
6	631	38	1583.4233111844
6	632	39	1583.2937902551
6	633	40	1583.136905165
6	634	41	1582.9531464146
6	635	42	1582.7532739023
6	636	43	1582.5553443302
6	637	44	1582.3578907587
6	638	45	1582.1683321142
6	639	46	1581.9764697102
6	640	47	1581.7834249989
6	641	48	1581.5895087126
6	642	49	1581.396299713
6	643	50	1581.2059193338
6	644	51	1581.0152494079
6	645	52	1580.8169150034
6	646	53	1580.6217695773
6	647	54	1580.4269099802
6	648	55	1580.2322007883
6	649	56	1580.0374817185
6	650	57	1579.8426140434
6	651	58	1579.6478526738
6	652	59	1579.4529558013
6	653	60	1579.2582894317
9	624	31	6.1717864787124
9	625	32	7.962613745009
9	626	33	8.3532556753079
9	627	34	10.257175209071
9	628	35	12.266295355254
9	629	36	14.441144230327
9	630	37	14.439960191866
9	631	38	14.519012756258
9	632	39	14.560272838971
9	633	40	14.513391046875
9	634	41	10.24250772934
9	635	42	5.74250772934
9	636	43	1.3093339955115
9	637	44	0
9	638	45	0
9	639	46	0
9	640	47	0
9	641	48	0
9	642	49	0
9	643	50	0
9	644	51	0
9	645	52	0
9	646	53	0
9	647	54	0
9	648	55	0
9	649	56	0
9	650	57	0
9	651	58	0
9	652	59	0
9	653	60	0
10	624	31	1028.9279867812
10	625	32	1016.308212569
10	626	33	1002.3397014601
10	627	34	988.31596213905
10	628	35	974.2815848252
10	629	36	960.24644361987
10	630	37	946.20865656136
10	631	38	932.16551102461
10	632	39	918.11838990268
10	633	40	904.0830278091
10	634	41	890.06083918224
10	635	42	876.04346967978
10	636	43	861.98100209802
10	637	44	847.937348718
10	638	45	833.90378107396
10	639	46	819.86510325879
10	640	47	806.20606916102
10	641	48	796.21767880842
10	642	49	789.84261516428
10	643	50	788.37848872348
10	644	51	788.26896486647
10	645	52	788.1370562462
10	646	53	787.97830551556
10	647	54	787.79576457016
10	648	55	787.60921544719
10	649	56	787.42257731947
10	650	57	787.23577525532
10	651	58	787.04898122874
10	652	59	786.86257555631
10	653	60	786.6756941803
11	624	31	2188.6974260122
11	625	32	2188.852859922
11	626	33	2188.9933251215
11	627	34	2189.2086608501
11	628	35	2189.4241599259
11	629	36	2189.635730035
11	630	37	2189.8288396169
11	631	38	2190.0210502681
11	632	39	2190.2133153337
11	633	40	2190.4051703617
11	634	41	2190.5999776007
11	635	42	2190.7915240547
11	636	43	2190.983686771
11	637	44	2191.1669008812
11	638	45	2191.3595672217
11	639	46	2191.5523037197
11	640	47	2191.7398281027
11	641	48	2191.8784086876
11	642	49	2190.6436790338
11	643	50	2184.4597412513
11	644	51	2176.528337039
11	645	52	2166.6091413369
11	646	53	2154.6714866049
11	647	54	2140.9448676979
11	648	55	2126.9168439424
11	649	56	2112.8821272541
11	650	57	2098.8350829599
11	651	58	2084.7886430701
11	652	59	2070.7714064343
11	653	60	2056.7183980872
12	624	31	-4.4876661824414
12	625	32	1.7908272662966
12	626	33	0.39064193029888
12	627	34	1.9039195337635
12	628	35	2.0091201461828
12	629	36	2.1748488750728
12	630	37	-0.001184038461032
12	631	38	0.079052564392331
12	632	39	0.041260082712398
12	633	40	-0.046881792095956
12	634	41	-4.2708833175348
12	635	42	-4.5
12	636	43	-4.4331737338285
12	637	44	-1.3093339955115
12	638	45	0
12	639	46	0
12	640	47	0
12	641	48	0
12	642	49	0
12	643	50	0
12	644	51	0
12	645	52	0
12	646	53	0
12	647	54	0
12	648	55	0
12	649	56	0
12	650	57	0
12	651	58	0
12	652	59	0
12	653	60	0
13	624	31	0.973
13	625	32	4.9773339163618
13	626	33	2.3532201815898
13	627	34	6.4109466806393
13	628	35	7.8115367269156
13	629	36	9.6540146696432
13	630	37	2.0806078203376
13	631	38	2.3697464375205
13	632	39	2.2423254127656
13	633	40	1.9285558158082
13	634	41	0.973
13	635	42	0.973
13	636	43	0.973
13	637	44	0.973
13	638	45	0.973
13	639	46	0.973
13	640	47	0.973
13	641	48	0.973
13	642	49	0.973
13	643	50	0.973
13	644	51	0.973
13	645	52	0.973
13	646	53	0.973
13	647	54	0.973
13	648	55	0.973
13	649	56	0.973
13	650	57	0.973
13	651	58	0.973
13	652	59	0.973
13	653	60	0.973
14	624	31	14.21576664114
14	625	32	14.242051046827
14	626	33	14.234233363265
14	627	34	11.158418131949
14	628	35	6.6938048184239
14	629	36	7.3486014060768
14	630	37	7.3917933481744
14	631	38	8.7853871522237
14	632	39	10.734640429807
14	633	40	12.752962159831
14	634	41	14.271835906628
14	635	42	14.224266008396
14	636	43	14.278790562047
14	637	44	14.192928786677
14	638	45	14.221580402091
14	639	46	14.263709307237
14	640	47	14.229535574881
14	641	48	14.241133302644
14	642	49	14.298364355591
14	643	50	14.273509442605
14	644	51	14.189739895629
14	645	52	14.269235638481
14	646	53	14.239420811137
14	647	54	14.294994423863
14	648	55	14.196141398198
14	649	56	14.232911670018
14	650	57	14.302569821054
14	651	58	14.28812025071
14	652	59	14.262215616899
14	653	60	14.186916388481
15	624	31	376.72852342988
15	625	32	376.87330676714
15	626	33	377.01793496991
15	627	34	377.16264190938
15	628	35	377.30723353494
15	629	36	377.45198571806
15	630	37	377.59672510845
15	631	38	377.74133954507
15	632	39	377.88596628296
15	633	40	378.03069384613
15	634	41	378.15543340632
15	635	42	378.22734911583
15	636	43	378.24813328995
15	637	44	378.2481333329
15	638	45	378.2481333329
15	639	46	378.2481333329
15	640	47	378.2481333329
15	641	48	378.2481333329
15	642	49	378.2481333329
15	643	50	378.2481333329
15	644	51	378.2481333329
15	645	52	378.21879652509
15	646	53	377.22136686896
15	647	54	372.64056313928
15	648	55	366.07531587639
15	649	56	357.4443634772
15	650	57	347.40665442611
15	651	58	335.29945036383
15	652	59	320.98492700023
15	653	60	304.64792917983
16	624	31	1857.5829188969
16	625	32	1869.7909901897
16	626	33	1881.9859806072
16	627	34	1894.18761007
16	628	35	1906.3795163118
16	629	36	1918.5849607012
16	630	37	1930.7893264122
16	631	38	1942.9831560733
16	632	39	1955.1780229726
16	633	40	1967.3813914178
16	634	41	1977.8993796934
16	635	42	1983.9632826636
16	636	43	1985.5830637166
16	637	44	1985.5830666374
16	638	45	1985.5830666374
16	639	46	1985.5830666374
16	640	47	1985.5830666374
16	641	48	1985.5830666374
16	642	49	1985.5830666374
16	643	50	1985.5830666374
16	644	51	1985.5830666374
16	645	52	1986.8526700546
16	646	53	1989.8977223323
16	647	54	1991.8263436536
16	648	55	1991.987773209
16	649	56	1992.1899569138
16	650	57	1994.3559646952
16	651	58	1995.7455161168
16	652	59	1995.8873520953
16	653	60	1996.1069182557
17	624	31	-0.033509023219812
17	625	32	0.026284405686892
17	626	33	-0.0078176835621715
17	627	34	-3.0758152313155
17	628	35	-4.4646133135253
17	629	36	0.65479658765295
17	630	37	0.043191942097619
17	631	38	1.3935938040493
17	632	39	1.949253277583
17	633	40	2.0183217300242
17	634	41	1.5188737467966
17	635	42	-0.047569898231886
17	636	43	0.054524553650989
17	637	44	-0.085861775369848
17	638	45	0.028651615413837
17	639	46	0.042128905146383
17	640	47	-0.034173732355704
17	641	48	0.011597727763002
17	642	49	0.0572310529463
17	643	50	-0.024854912986049
17	644	51	-0.083769546975381
17	645	52	0.079495742851869
17	646	53	-0.029814827344381
17	647	54	0.055573612726294
17	648	55	-0.098853025664575
17	649	56	0.036770271819551
17	650	57	0.069658151036128
17	651	58	-0.014449570344295
17	652	59	-0.025904633810278
17	653	60	-0.075299228418153
18	624	31	1.9463560632291
18	625	32	2.1541176035428
18	626	33	2.0362662202253
18	627	34	0.973
18	628	35	0.973
18	629	36	2.6608092802917
18	630	37	1.5808329286668
18	631	38	4.547073529213
18	632	39	6.7849222989253
18	633	40	8.1200464198122
18	634	41	7.2912005343272
18	635	42	1.8989723787789
18	636	43	2.2553729001997
18	637	44	1.765089422353
18	638	45	2.159964735025
18	639	46	2.2109852492959
18	640	47	1.9454014740929
18	641	48	2.1036095918977
18	642	49	2.267008197804
18	643	50	1.9816917709633
18	644	51	1.7719784439214
18	645	52	2.340119955454
18	646	53	1.9613104714295
18	647	54	2.2608982241273
18	648	55	1.720910733732
18	649	56	2.1890733033487
18	650	57	2.3103426250247
18	651	58	2.018965017463
18	652	59	1.976969346705
18	653	60	1.8007021327017
19	624	31	11.653276828084
19	625	32	13.47034787391
19	626	33	14.036701353709
19	627	34	13.997554897796
19	628	35	14.055438071817
19	629	36	13.979675755841
19	630	37	13.981408182084
19	631	38	14.036371908591
19	632	39	14.082941636836
19	633	40	14.032048942966
19	634	41	14.060783782289
19	635	42	14.014481807714
19	636	43	14.061698294335
19	637	44	14.003884918345
19	638	45	14.055588856772
19	639	46	14.021108754186
19	640	47	12.435762045201
19	641	48	7.9904393030193
19	642	49	6.4580153338535
19	643	50	6.9379959900322
19	644	51	8.7646456855273
19	645	52	10.818739809035
19	646	53	12.91246398454
19	647	54	14.002132193937
19	648	55	14.089586334664
19	649	56	13.998280825564
19	650	57	14.054292375636
19	651	58	14.080504756295
19	652	59	14.092428141925
19	653	60	14.027640960296
20	624	31	669.47333406723
20	625	32	657.36232738077
20	626	33	649.44339513099
20	627	34	640.88240656341
20	628	35	640.64208289022
20	629	36	636.41371856575
20	630	37	628.19782229832
20	631	38	617.92344794626
20	632	39	605.57696169121
20	633	40	591.39080403533
20	634	41	575.56921698601
20	635	42	559.56526768049
20	636	43	543.7869849907
20	637	44	531.31259037856
20	638	45	523.291037317
20	639	46	519.76882018227
20	640	47	519.58100015593
20	641	48	519.58100015593
20	642	49	519.58100015593
20	643	50	519.58100015593
20	644	51	519.58100015593
20	645	52	519.58100015593
20	646	53	519.58100015593
20	647	54	519.58100015593
20	648	55	519.58100015593
20	649	56	519.58100015593
20	650	57	519.58100015593
20	651	58	519.58100015593
20	652	59	519.58100015593
20	653	60	519.58100015593
21	624	31	1588.3692403264
21	625	32	1588.5350472278
21	626	33	1587.6499414687
21	627	34	1580.9463217912
21	628	35	1573.1822954266
21	629	36	1568.9306225453
21	630	37	1568.9982061236
21	631	38	1569.08415282
21	632	39	1569.1875705528
21	633	40	1569.3063979043
21	634	41	1569.4333568198
21	635	42	1569.56587679
21	636	43	1569.7004390084
21	637	44	1569.8068246174
21	638	45	1569.8733448732
21	639	46	1569.9008552294
21	640	47	1569.9022999988
21	641	48	1569.9022999988
21	642	49	1569.9022999988
21	643	50	1569.9022999988
21	644	51	1569.9022999988
21	645	52	1569.9022999988
21	646	53	1569.9022999988
21	647	54	1569.9022999988
21	648	55	1569.9022999988
21	649	56	1569.9022999988
21	650	57	1569.9022999988
21	651	58	1569.9022999988
21	652	59	1569.9022999988
21	653	60	1569.9022999988
22	624	31	2.0933696925291
22	625	32	1.8170710458257
22	626	33	0.56635347979951
22	627	34	-0.039146455912851
22	628	35	0.057883174021264
22	629	36	-0.075762315976899
22	630	37	0.0017324262438336
22	631	38	0.054963726506104
22	632	39	0.046569728245958
22	633	40	-0.050892693870701
22	634	41	0.028734839323443
22	635	42	-0.046301974575035
22	636	43	0.047216486621183
22	637	44	-0.057813375990373
22	638	45	0.05170393842738
22	639	46	-0.034480102586093
22	640	47	-1.5853467089855
22	641	48	-4.4453227421815
22	642	49	-1.5324239691658
22	643	50	0.47998065617867
22	644	51	1.8266496954951
22	645	52	2.0540941235074
22	646	53	2.0937241755053
22	647	54	1.0896682093972
22	648	55	0.087454140726477
22	649	56	-0.091305509100202
22	650	57	0.056011550072581
22	651	58	0.026212380658835
22	652	59	0.011923385630361
22	653	60	-0.0647871816298
23	624	31	7.6974463943789
23	625	32	7.8844574442006
23	626	33	3.9585029758376
23	627	34	1.90653982878
23	628	35	2.2406164296502
23	629	36	1.7815138594641
23	630	37	2.0427796768391
23	631	38	2.2285124475065
23	632	39	2.2054379261266
23	633	40	1.8700335016242
23	634	41	2.1424681945217
23	635	42	1.8839492357961
23	636	43	2.2052006413277
23	637	44	1.8441296785243
23	638	45	2.2197025388967
23	639	46	1.9245029908658
23	640	47	0.973
23	641	48	0.973
23	642	49	0.973
23	643	50	2.2780953551237
23	644	51	5.4533993237644
23	645	52	7.1045466897785
23	646	53	8.4472496219472
23	647	54	5.7161668136101
23	648	55	2.3450251500457
23	649	56	1.7306443838409
23	650	57	2.2341431090358
23	651	58	2.1360784460821
23	652	59	2.0888552819209
23	653	60	1.8226619074397
24	624	31	12.248012862353
24	625	32	12.252444738055
24	626	33	12.240844066004
24	627	34	12.201142568943
24	628	35	12.234549502794
24	629	36	12.245599817031
24	630	37	12.244328792752
24	631	38	12.249750943624
24	632	39	12.146647488347
24	633	40	12.212154728903
24	634	41	8.5392736697427
24	635	42	4.0392736697427
24	636	43	0.00091210522227021
24	637	44	0
24	638	45	0
24	639	46	0
24	640	47	0
24	641	48	0
24	642	49	0
24	643	50	0
24	644	51	0
24	645	52	2.2308888504391
24	646	53	4.1974155872956
24	647	54	5.6679061692253
24	648	55	7.4566667460858
24	649	56	9.5113641324521
24	650	57	11.430442629533
24	651	58	13.203235779784
24	652	59	15.201940238848
24	653	60	17.280821820386
25	624	31	1362.6023605354
25	625	32	1362.4825097779
25	626	33	1362.3625900054
25	627	34	1362.2429128319
25	628	35	1362.1230390571
25	629	36	1362.003182386
25	630	37	1361.8863658642
25	631	38	1361.7684753476
25	632	39	1361.6535283987
25	633	40	1361.5742557724
25	634	41	1361.1605332977
25	635	42	1356.5020946168
25	636	43	1349.070808252
25	637	44	1339.7904473051
25	638	45	1328.5571204905
25	639	46	1315.3380581864
25	640	47	1300.0564857848
25	641	48	1285.5515414755
25	642	49	1275.5011805515
25	643	50	1269.9528729744
25	644	51	1268.7391960809
25	645	52	1268.7391960809
25	646	53	1268.7391960809
25	647	54	1268.7391960809
25	648	55	1268.7391960809
25	649	56	1268.7391960809
25	650	57	1268.7391960809
25	651	58	1268.7391960809
25	652	59	1268.7391960809
25	653	60	1268.7391960809
26	624	31	2108.3386017637
26	625	32	2095.2711814774
26	626	33	2082.1962364387
26	627	34	2069.147742152
26	628	35	2056.0778122746
26	629	36	2043.0097472298
26	630	37	2029.9382744655
26	631	38	2016.8955890621
26	632	39	2004.3363854751
26	633	40	1995.6749893929
26	634	41	1988.7306331239
26	635	42	1983.9197822031
26	636	43	1983.5699497045
26	637	44	1983.6780036375
26	638	45	1983.8103312914
26	639	46	1983.966050744
26	640	47	1984.1460663936
26	641	48	1984.316933429
26	642	49	1984.4342442678
26	643	50	1984.4972813434
26	644	51	1984.5109797282
26	645	52	1984.5109797282
26	646	53	1984.5109797282
26	647	54	1984.5109797282
26	648	55	1984.5109797282
26	649	56	1984.5109797282
26	650	57	1984.5109797282
26	651	58	1984.5109797282
26	652	59	1984.5109797282
26	653	60	1984.5109797282
27	624	31	0.051969479902182
27	625	32	0.0044318757019948
27	626	33	-0.011600672050845
27	627	34	-0.039701497061179
27	628	35	0.033406933851074
27	629	36	0.011050314237364
27	630	37	-0.0012710242788305
27	631	38	0.0054221508721817
27	632	39	-0.10310345527716
27	633	40	0.06550724055618
27	634	41	-3.6728810591606
27	635	42	-4.5
27	636	43	-4.0383615645204
27	637	44	-0.00091210522227021
27	638	45	0
27	639	46	0
27	640	47	0
27	641	48	0
27	642	49	0
27	643	50	0
27	644	51	0
27	645	52	2.2308888504391
27	646	53	1.9665267368565
27	647	54	1.4704905819297
27	648	55	1.7887605768605
27	649	56	2.0546973863663
27	650	57	1.9190784970811
27	651	58	1.7727931502508
27	652	59	1.9987044590642
27	653	60	2.0788815815374
28	624	31	2.0239804415961
28	625	32	1.8840631615766
28	626	33	1.8357122602954
28	627	34	1.7496349824479
28	628	35	1.967871072643
28	629	36	1.9029732984394
28	630	37	1.8664969523448
28	631	38	1.8867417670609
28	632	39	1.5596900712014
28	633	40	2.0601584972799
28	634	41	0.973
28	635	42	0.973
28	636	43	0.973
28	637	44	0.973
28	638	45	0.973
28	639	46	0.973
28	640	47	0.973
28	641	48	0.973
28	642	49	0.973
28	643	50	0.973
28	644	51	0.973
28	645	52	2.4180682255884
28	646	53	3.3086083924977
28	647	54	3.4088795977814
28	648	55	4.7225144739403
28	649	56	6.3581731037801
28	650	57	7.0859232164212
28	651	58	7.6005408847876
28	652	59	9.4904714993856
28	653	60	11.078222094843
29	624	31	14.516942086881
29	625	32	10.113601243289
29	626	33	7.4180652013547
29	627	34	7.8349828089015
29	628	35	6.9222539576443
29	629	36	7.1627773838045
29	630	37	9.1686089506696
29	631	38	11.18036342211
29	632	39	13.210208070851
29	633	40	15.017814921997
29	634	41	15.928711040812
29	635	42	15.990058776355
29	636	43	14.877581115625
29	637	44	10.467581032241
29	638	45	5.9972171347234
29	639	46	1.4972171347234
29	640	47	0
29	641	48	0
29	642	49	0
29	643	50	0
29	644	51	0
29	645	52	0
29	646	53	0
29	647	54	0
29	648	55	0
29	649	56	0
29	650	57	0
29	651	58	0
29	652	59	0
29	653	60	0
30	624	31	376.12043416741
30	625	32	376.18996577514
30	626	33	376.28164559322
30	627	34	376.39696012908
30	628	35	376.52226101502
30	629	36	376.64719482028
30	630	37	376.77249118415
30	631	38	376.89756077509
30	632	39	377.0230149996
30	633	40	377.14816425329
30	634	41	377.27341402848
30	635	42	377.39866385986
30	636	43	377.52383149195
30	637	44	377.64904611826
30	638	45	377.77427891893
30	639	46	377.89945575497
30	640	47	378.00493651307
30	641	48	378.0763466407
30	642	49	378.1191735327
30	643	50	378.14151218871
30	644	51	378.15149106838
30	645	52	378.16005723957
30	646	53	378.18424139775
30	647	54	378.22856218562
30	648	55	377.85532648129
30	649	56	374.06898201509
30	650	57	368.79910653917
30	651	58	361.77582406986
30	652	59	352.85995679069
30	653	60	342.94541307738
31	624	31	1806.2337697348
31	625	32	1812.047182153
31	626	33	1819.8815325116
31	627	34	1829.6256381001
31	628	35	1840.1909571329
31	629	36	1850.7253240732
31	630	37	1861.2902618055
31	631	38	1871.836078139
31	632	39	1882.4143266155
31	633	40	1892.9668600792
31	634	41	1903.5278694738
31	635	42	1914.088883606
31	636	43	1924.6429667288
31	637	44	1935.2010123841
31	638	45	1945.7605904939
31	639	46	1956.3154496896
31	640	47	1965.2095437153
31	641	48	1971.2308162296
31	642	49	1974.8419621024
31	643	50	1976.7255483656
31	644	51	1977.5669633846
31	645	52	1978.2892594068
31	646	53	1980.3284576518
31	647	54	1984.0655682078
31	648	55	1988.9288406607
31	649	56	1991.6109471565
31	650	57	1991.9214636985
31	651	58	1992.089807536
31	652	59	1992.2959547563
31	653	60	1995.6697558155
32	624	31	-1.4147836528231
32	625	32	-4.4033408435921
32	626	33	-2.6955360419345
32	627	34	0.41691760754678
32	628	35	-0.91272885125716
32	629	36	0.24052342616022
32	630	37	2.0058315668651
32	631	38	2.0117544714408
32	632	39	2.0298446487403
32	633	40	1.8076068511466
32	634	41	0.91089611881479
32	635	42	0.061347735542803
32	636	43	-1.1124776607296
32	637	44	-4.4100000833846
32	638	45	-4.4703638975172
32	639	46	-4.5
32	640	47	-1.4972171347234
32	641	48	0
32	642	49	0
32	643	50	0
32	644	51	0
32	645	52	0
32	646	53	0
32	647	54	0
32	648	55	0
32	649	56	0
32	650	57	0
32	651	58	0
32	652	59	0
32	653	60	0
33	624	31	0.973
33	625	32	0.973
33	626	33	0.973
33	627	34	2.3196273386339
33	628	35	0.973
33	629	36	1.9046792020419
33	630	37	6.0556493427303
33	631	38	7.1990521681056
33	632	39	8.4225577256689
33	633	40	8.6896098336867
33	634	41	5.7485153349335
33	635	42	2.4954493553958
33	636	43	0.973
33	637	44	0.973
33	638	45	0.973
33	639	46	0.973
33	640	47	0.973
33	641	48	0.973
33	642	49	0.973
33	643	50	0.973
33	644	51	0.973
33	645	52	0.973
33	646	53	0.973
33	647	54	0.973
33	648	55	0.973
33	649	56	0.973
33	650	57	0.973
33	651	58	0.973
33	652	59	0.973
33	653	60	0.973
34	624	31	13.103130497356
34	625	32	13.101439514852
34	626	33	13.087522057356
34	627	34	13.100640064336
34	628	35	13.091646975962
34	629	36	13.047240477051
34	630	37	13.086706667871
34	631	38	13.082635633329
34	632	39	11.134437359682
34	633	40	6.6431434358622
34	634	41	7.1158452252549
34	635	42	7.0915525658539
34	636	43	8.1425038267224
34	637	44	10.223822696905
34	638	45	12.13472996521
34	639	46	14.193865132925
34	640	47	16.154239044748
34	641	48	12.526678736754
34	642	49	8.0266787367537
34	643	50	3.5316516997382
34	644	51	0
34	645	52	0
34	646	53	0
34	647	54	0
34	648	55	0
34	649	56	0
34	650	57	0
34	651	58	0
34	652	59	0
34	653	60	0
35	624	31	243.81777340195
35	625	32	243.88369956903
35	626	33	243.92010793574
35	627	34	243.94304699633
35	628	35	243.97766371017
35	629	36	244.02866132604
35	630	37	244.48706189632
35	631	38	247.60431211426
35	632	39	256.43655552011
35	633	40	267.21161330207
35	634	41	279.26888480779
35	635	42	293.51719445659
35	636	43	309.93797933065
35	637	44	328.28948272309
35	638	45	346.21913107999
35	639	46	358.20401952577
35	640	47	367.02756489402
35	641	48	371.36496841157
35	642	49	371.85899999477
35	643	50	371.85899999477
35	644	51	371.85899999477
35	645	52	371.85899999477
35	646	53	371.85899999477
35	647	54	371.85899999477
35	648	55	371.85899999477
35	649	56	371.85899999477
35	650	57	371.85899999477
35	651	58	371.85899999477
35	652	59	371.85899999477
35	653	60	371.85899999477
36	624	31	1970.8852514359
36	625	32	1975.4671200478
36	626	33	1977.997501534
36	627	34	1979.5917662453
36	628	35	1981.9976278569
36	629	36	1985.5419621601
36	630	37	1990.8195363076
36	631	38	1997.302084359
36	632	39	1999.9355176476
36	633	40	2003.1359554857
36	634	41	2000.7981901416
36	635	42	1999.4926021123
36	636	43	1999.2276474694
36	637	44	1999.0153709791
36	638	45	1999.68017186
36	639	46	2004.9793290283
36	640	47	2004.7718944876
36	641	48	2004.6663533517
36	642	49	2004.6543404257
36	643	50	2004.6543404257
36	644	51	2004.6543404257
36	645	52	2004.6543404257
36	646	53	2004.6543404257
36	647	54	2004.6543404257
36	648	55	2004.6543404257
36	649	56	2004.6543404257
36	650	57	2004.6543404257
36	651	58	2004.6543404257
36	652	59	2004.6543404257
36	653	60	2004.6543404257
37	624	31	0.050102749227081
37	625	32	-0.0016909825033515
37	626	33	-0.01391745749628
37	627	34	0.013118006980511
37	628	35	-0.0089930883748455
37	629	36	-0.044406498910393
37	630	37	0.039466190820093
37	631	38	-0.0040710345422852
37	632	39	-1.9481982736466
37	633	40	-4.4912939238201
37	634	41	0.47270178939269
37	635	42	-0.024292659400962
37	636	43	1.0509512608685
37	637	44	2.0813188701821
37	638	45	1.9109072683053
37	639	46	2.0591351677151
37	640	47	1.9603739118227
37	641	48	-3.6275603079939
37	642	49	-4.5
37	643	50	-4.4950270370155
37	644	51	-3.5316516997382
37	645	52	0
37	646	53	0
37	647	54	0
37	648	55	0
37	649	56	0
37	650	57	0
37	651	58	0
37	652	59	0
37	653	60	0
38	624	31	2.108137253724
38	625	32	1.9444188534255
38	626	33	1.9045283614459
38	627	34	1.9910983313598
38	628	35	1.9204461916137
38	629	36	1.8049447621536
38	630	37	2.0728195500401
38	631	38	1.9351221000317
38	632	39	0.973
38	633	40	0.973
38	634	41	2.2971987882487
38	635	42	1.4435243251913
38	636	43	3.6149925096497
38	637	44	6.8301663659469
38	638	45	7.4488382606186
38	639	46	9.1026046465532
38	640	47	9.9107850633168
38	641	48	0.973
38	642	49	0.973
38	643	50	0.973
38	644	51	0.973
38	645	52	0.973
38	646	53	0.973
38	647	54	0.973
38	648	55	0.973
38	649	56	0.973
38	650	57	0.973
38	651	58	0.973
38	652	59	0.973
38	653	60	0.973
39	624	31	4.7295875293982
39	625	32	6.7362980308371
39	626	33	8.6527232938573
39	627	34	10.564140969143
39	628	35	10.60272577111
39	629	36	10.617254089577
39	630	37	10.617499270233
39	631	38	10.527229891753
39	632	39	10.593648177249
39	633	40	10.582088098983
39	634	41	10.542735335071
39	635	42	10.596139722495
39	636	43	10.514916131795
39	637	44	10.565253978354
39	638	45	10.565936098028
39	639	46	10.587595805671
39	640	47	7.5746607144097
39	641	48	4.777595421385
39	642	49	2.7008298859026
39	643	50	1.2991174585628
39	644	51	0.55256510291558
39	645	52	1.2266555900628
39	646	53	2.7194413474741
39	647	54	4.6448075132634
39	648	55	4.9079997582848
39	649	56	4.8929080974937
39	650	57	6.0454542498265
39	651	58	7.7671658613507
39	652	59	9.7826563025403
39	653	60	11.56412500659
40	624	31	249.95313048097
40	625	32	249.70762870752
40	626	33	249.42832321789
40	627	34	249.11516450412
40	628	35	251.97135014055
40	629	36	251.59886842286
40	630	37	251.63229084521
40	631	38	254.26865746334
40	632	39	254.10089013367
40	633	40	254.01084880471
40	634	41	253.99166505517
40	635	42	253.99166505517
40	636	43	253.99166505517
[...]
91	646	53	2.6411952818983
91	647	54	2.6883819939093
91	648	55	3.1316916915149
91	649	56	2.2397958421777
91	650	57	2.8016571980235
91	651	58	3.3811257590994
91	652	59	2.7333638617047
91	653	60	2.7688867059302
92	624	31	23.419103122462
92	625	32	25.397639529818
92	626	33	27.27010417883
92	627	34	29.367854899814
92	628	35	30.717707372515
92	629	36	30.691596862872
92	630	37	30.650636422574
92	631	38	30.706590502826
92	632	39	30.742297259551
92	633	40	30.678660810907
92	634	41	30.653591178842
92	635	42	30.717470549576
92	636	43	30.646619381544
92	637	44	30.739030293723
92	638	45	30.725585895118
92	639	46	30.73326319892
92	640	47	30.657766148616
92	641	48	30.645628567695
92	642	49	30.753453026112
92	643	50	30.669846273882
92	644	51	30.736030344842
92	645	52	30.768561269429
92	646	53	30.725965165364
92	647	54	30.721791933123
92	648	55	30.707137903639
92	649	56	30.749676192829
92	650	57	30.665682438186
92	651	58	30.689764196331
92	652	59	30.741580426889
92	653	60	30.65475253356
93	624	31	1.7125452783518
93	625	32	1.9785364073562
93	626	33	1.8724646490114
93	627	34	2.0977507209848
93	628	35	1.349852472701
93	629	36	-0.026110509643331
93	630	37	-0.040960440298075
93	631	38	0.055954080251976
93	632	39	0.035706756724977
93	633	40	-0.0636364486441
93	634	41	-0.025069632064554
93	635	42	0.06387937073363
93	636	43	-0.070851168031805
93	637	44	0.092410912178458
93	638	45	-0.013444398604335
93	639	46	0.0076773038017564
93	640	47	-0.075497050303966
93	641	48	-0.012137580921408
93	642	49	0.10782445841702
93	643	50	-0.083606752229386
93	644	51	0.066184070960151
93	645	52	0.032530924587046
93	646	53	-0.04259610406589
93	647	54	-0.0041732322401344
93	648	55	-0.014654029484376
93	649	56	0.042538289190272
93	650	57	-0.083993754643014
93	651	58	0.024081758144309
93	652	59	0.051816230558327
93	653	60	-0.086827893329321
94	624	31	13.091892650083
94	625	32	15.958865970267
94	626	33	16.60493666046
94	627	34	19.713714356549
94	628	35	15.26229540285
94	629	36	5.0681688343995
94	630	37	4.9460784481715
94	631	38	5.6800154887754
94	632	39	5.5415506300697
94	633	40	4.7868004176217
94	634	41	5.0643547817216
94	635	42	5.7422013540655
94	636	43	4.7241105924739
94	637	44	5.9605797409571
94	638	45	5.1722682975286
94	639	46	5.33106538185
94	640	47	4.6930342364928
94	641	48	5.1574566849071
94	642	49	6.0796140207709
94	643	50	4.6366027436179
94	644	51	5.7653104462849
94	645	52	5.526379027134
94	646	53	4.9565174528417
94	647	54	5.2397483318813
94	648	55	5.1576626372445
94	649	56	5.5945294789358
94	650	57	4.6325403593058
94	651	58	5.4388472756278
94	652	59	5.6606727291491
94	653	60	4.6084488319239
23	779	61	2.0727000848263
23	780	62	1.9362549026931
23	781	63	1.9875666079435
22	779	61	0.0088979012263017
22	780	62	-0.03057515364606
22	781	63	-0.01493582601659
19	779	61	14.036538861522
19	780	62	14.005963707876
19	781	63	13.991027881859
11	779	61	2042.6758084533
11	780	62	2028.6538462174
11	781	63	2014.6202325804
10	779	61	786.48895135564
10	780	62	786.30248284069
10	781	63	786.11585938169
2	779	61	499.96899991313
2	780	62	499.96899991313
2	781	63	499.96899991313
2	782	64	499.96899991313
2	783	65	499.96899991313
2	784	66	499.96899991313
2	785	67	499.96899991313
2	786	68	499.96899991313
2	787	69	499.96899991313
3	779	61	1573.2690180188
3	780	62	1573.2690180188
3	781	63	1573.2690180188
3	782	64	1573.2690180188
3	783	65	1573.2690180188
3	784	66	1573.2690180188
3	785	67	1573.2690180188
3	786	68	1573.2690180188
3	787	69	1573.2690180188
5	779	61	1591.0143371098
5	780	62	1605.2559441724
5	781	63	1619.486986972
5	782	64	1633.7109834574
5	783	65	1647.9434426071
5	784	66	1662.1695901657
5	785	67	1676.4040677254
5	786	68	1690.645861943
5	787	69	1704.8903980517
6	779	61	1579.0675745117
6	780	62	1578.8720237531
6	781	63	1578.6776138389
6	782	64	1578.4833001843
6	783	65	1578.2888709215
6	784	66	1578.0945278811
6	785	67	1577.9000710448
6	786	68	1577.7055142558
6	787	69	1577.51092001
9	779	61	0
9	780	62	0
9	781	63	0
9	782	64	0
9	783	65	0
9	784	66	0
9	785	67	0
9	786	68	0
9	787	69	0
12	779	61	0
12	780	62	0
12	781	63	0
12	782	64	0
12	783	65	0
12	784	66	0
12	785	67	0
12	786	68	0
12	787	69	0
13	779	61	0.973
13	780	62	0.973
13	781	63	0.973
13	782	64	0.973
13	783	65	0.973
13	784	66	0.973
13	785	67	0.973
13	786	68	0.973
13	787	69	0.973
14	779	61	14.269015634431
14	780	62	14.297818221735
14	781	63	14.291038259103
14	782	64	14.187845881757
14	783	65	14.178597341255
14	784	66	14.209354035941
14	785	67	14.259772749078
14	786	68	14.212253753968
14	787	69	14.298278955776
15	779	61	286.38374636659
15	780	62	267.1719381995
15	781	63	244.87323937194
15	782	64	220.84643982623
15	783	65	199.54989752603
15	784	66	182.65334276605
15	785	67	169.84946712682
15	786	68	161.53493295405
15	787	69	157.09099048182
16	779	61	1996.4208849548
16	780	62	1990.3332604715
16	781	63	1992.4408117908
16	782	64	1994.4794349946
16	783	65	1996.6698780103
16	784	66	1998.5012506203
16	785	67	1998.7476369379
16	786	68	1998.9034833401
16	787	69	1996.9139924934
17	779	61	0.082099245949648
17	780	62	0.028802587303799
17	781	63	-0.0067799626314073
17	782	64	-0.10319237734657
17	783	65	-0.0092485405015754
17	784	66	0.030756694686133
17	785	67	0.050418713137041
17	786	68	-0.047518995110877
17	787	69	0.086025201808662
18	779	61	2.3490457250633
18	780	62	2.1689853043854
18	781	63	2.0456759525566
18	782	64	1.7054077220937
18	783	65	2.0256860053323
18	784	66	2.1658145383958
18	785	67	2.2390222799237
18	786	68	1.898031976937
18	787	69	2.3662193938376
20	779	61	519.58100015593
20	780	62	519.58100015593
20	781	63	519.58100015593
20	782	64	519.58100015593
20	783	65	519.58100015593
20	784	66	519.58100015593
20	785	67	519.58100015593
20	786	68	519.58100015593
20	787	69	519.58100015593
21	779	61	1569.9022999988
21	780	62	1569.9022999988
21	781	63	1569.9022999988
21	782	64	1569.9022999988
21	783	65	1569.9022999988
21	784	66	1569.9022999988
21	785	67	1569.9022999988
21	786	68	1569.9022999988
21	787	69	1569.9022999988
24	779	61	19.121793389839
24	780	62	21.330708203746
24	781	63	23.45331841124
24	782	64	24.169546725827
24	783	65	19.781285276392
24	784	66	15.282303272625
24	785	67	10.783272994372
24	786	68	6.2971944763591
24	787	69	5.1552529397557
25	779	61	1268.7391960809
25	780	62	1268.7391960809
25	781	63	1268.7391960809
25	782	64	1268.7391960809
25	783	65	1268.7391960809
25	784	66	1268.7391960809
25	785	67	1268.7391960809
25	786	68	1268.7391960809
25	787	69	1268.7391960809
26	779	61	1984.5109797282
26	780	62	1984.5109797282
26	781	63	1984.5109797282
26	782	64	1984.5109797282
26	783	65	1984.5109797282
26	784	66	1984.5109797282
26	785	67	1984.5109797282
26	786	68	1984.5109797282
26	787	69	1984.5109797282
27	779	61	1.8409715694539
27	780	62	2.2089148139069
27	781	63	2.1226102074934
27	782	64	0.71622831458681
27	783	65	-4.3882614494343
27	784	66	-4.4989820037674
27	785	67	-4.4990302782531
27	786	68	-4.4860785180125
27	787	69	-1.1419415366034
28	779	61	11.162170702184
28	780	62	14.390942149113
28	781	63	15.430662250725
28	782	64	7.7521712885133
28	783	65	0.973
28	784	66	0.973
28	785	67	0.973
28	786	68	0.973
28	787	69	0.973
29	779	61	0
29	780	62	0
29	781	63	0
29	782	64	0
29	783	65	0
29	784	66	0
29	785	67	0
29	786	68	0
29	787	69	0
30	779	61	330.17353087913
30	780	62	315.39427311874
30	781	63	298.6039482285
30	782	64	279.73902349061
30	783	65	260.56221180608
30	784	66	239.71618439777
30	785	67	219.47382979659
30	786	68	202.74255716234
30	787	69	190.03686866538
31	779	61	1995.7963064776
31	780	62	1995.9516820058
31	781	63	1996.206723159
31	782	64	1995.4638305256
31	783	65	1990.4408849666
31	784	66	1993.6122648364
31	785	67	1994.5122411616
31	786	68	1995.0877842462
31	787	69	1998.3591686594
32	779	61	0
32	780	62	0
32	781	63	0
32	782	64	0
32	783	65	0
32	784	66	0
32	785	67	0
32	786	68	0
32	787	69	0
33	779	61	0.973
33	780	62	0.973
33	781	63	0.973
33	782	64	0.973
33	783	65	0.973
33	784	66	0.973
33	785	67	0.973
33	786	68	0.973
33	787	69	0.973
34	779	61	0
34	780	62	0
34	781	63	0
34	782	64	0
34	783	65	0
34	784	66	0
34	785	67	0
34	786	68	0
34	787	69	0
35	779	61	371.85899999477
35	780	62	371.85899999477
35	781	63	371.85899999477
35	782	64	371.85899999477
35	783	65	371.85899999477
35	784	66	371.85899999477
35	785	67	371.85899999477
35	786	68	371.85899999477
35	787	69	371.85899999477
36	779	61	2004.6543404257
36	780	62	2004.6543404257
36	781	63	2004.6543404257
36	782	64	2004.6543404257
36	783	65	2004.6543404257
36	784	66	2004.6543404257
36	785	67	2004.6543404257
36	786	68	2004.6543404257
36	787	69	2004.6543404257
37	779	61	0
37	780	62	0
37	781	63	0
37	782	64	0
37	783	65	0
37	784	66	0
37	785	67	0
37	786	68	0
37	787	69	0
38	779	61	0.973
38	780	62	0.973
38	781	63	0.973
38	782	64	0.973
38	783	65	0.973
38	784	66	0.973
38	785	67	0.973
38	786	68	0.973
38	787	69	0.973
39	779	61	13.676502336657
39	780	62	15.639425510443
39	781	63	17.652757150049
39	782	64	19.426280014289
39	783	65	21.186340415026
39	784	66	21.156618477217
39	785	67	18.756072887341
39	786	68	15.153300563596
39	787	69	12.549031954913
40	779	61	253.99166505517
40	780	62	253.99166505517
40	781	63	253.99166505517
40	782	64	253.99166505517
40	783	65	253.99166505517
40	784	66	253.99166505517
40	785	67	253.99166505517
40	786	68	253.99166505517
40	787	69	253.99166505517
41	779	61	2010.0510004548
41	780	62	2010.0510004548
41	781	63	2010.0510004548
41	782	64	2010.0510004548
41	783	65	2010.0510004548
41	784	66	2010.0510004548
41	785	67	2010.0510004548
41	786	68	2010.0510004548
41	787	69	2010.0510004548
42	779	61	2.1123773300671
42	780	62	1.9629231737857
42	781	63	2.0133316396061
42	782	64	1.7735228642402
42	783	65	1.7600604007368
42	784	66	-0.029721937808205
42	785	67	-2.400545589876
42	786	68	-3.6027723237454
42	787	69	-2.6042686086832
43	779	61	8.9685470001306
43	780	62	9.6162770564434
43	781	63	11.035086471102
43	782	64	11.027523604452
43	783	65	11.997233114557
43	784	66	2.8538560930266
43	785	67	0.973
43	786	68	0.973
43	787	69	0.973
44	779	61	0
44	780	62	0
44	781	63	0
44	782	64	0
44	783	65	0
44	784	66	0
44	785	67	0
44	786	68	0
44	787	69	0
45	779	61	477.42155548026
45	780	62	490.88687411161
45	781	63	499.84362539822
45	782	64	504.31037668483
45	783	65	504.85899958916
45	784	66	504.85899958916
45	785	67	504.85899958916
45	786	68	504.85899958916
45	787	69	504.85899958916
46	779	61	1999.1609206357
46	780	62	1999.0393883054
46	781	63	1998.9529622742
46	782	64	1998.9086701604
46	783	65	1998.9020602459
46	784	66	1998.9020602459
46	785	67	1998.9020602459
46	786	68	1998.9020602459
46	787	69	1998.9020602459
47	779	61	0
47	780	62	0
47	781	63	0
47	782	64	0
47	783	65	0
47	784	66	0
47	785	67	0
47	786	68	0
47	787	69	0
48	779	61	0.973
48	780	62	0.973
48	781	63	0.973
48	782	64	0.973
48	783	65	0.973
48	784	66	0.973
48	785	67	0.973
48	786	68	0.973
48	787	69	0.973
49	779	61	0
49	780	62	0
49	781	63	0
49	782	64	0
49	783	65	0
49	784	66	0
49	785	67	0
49	786	68	0
49	787	69	0
50	779	61	405.49210366711
50	780	62	405.62369792711
50	781	63	405.7555046678
50	782	64	405.8873900508
50	783	65	406.01927309155
50	784	66	406.15116067304
50	785	67	406.28285225772
50	786	68	406.41453467778
50	787	69	406.54709999625
51	779	61	4267.965437307
51	780	62	4281.0140470883
51	781	63	4294.0837260069
51	782	64	4307.1612029316
51	783	65	4320.2384476039
51	784	66	4333.3161425266
51	785	67	4346.3744028177
51	786	68	4359.4317543646
51	787	69	4372.5006853457
52	779	61	0
52	780	62	0
52	781	63	0
52	782	64	0
52	783	65	0
52	784	66	0
52	785	67	0
52	786	68	0
52	787	69	0
53	779	61	0.973
53	780	62	0.973
53	781	63	0.973
53	782	64	0.973
53	783	65	0.973
53	784	66	0.973
53	785	67	0.973
53	786	68	0.973
53	787	69	0.973
54	779	61	15.94175128661
54	780	62	11.44175128661
54	781	63	6.9417512866098
54	782	64	2.4417512866098
54	783	65	0
54	784	66	0
54	785	67	0
54	786	68	0
54	787	69	0
55	779	61	1410.813121496
55	780	62	1423.6830313529
55	781	63	1436.5837316395
55	782	64	1449.4863223395
55	783	65	1462.3631336495
55	784	66	1475.2429089344
55	785	67	1488.1098777665
55	786	68	1500.9973822939
55	787	69	1513.8747898132
56	779	61	1581.521158958
56	780	62	1581.3489311155
56	781	63	1581.1766774469
56	782	64	1581.0030105571
56	783	65	1580.8238511401
56	784	66	1580.6470270814
56	785	67	1580.4710351065
56	786	68	1580.2947622483
56	787	69	1580.118627495
57	779	61	-2.2384954126091
57	780	62	-4.5
57	781	63	-4.5
57	782	64	-4.5
57	783	65	-2.4417512866098
57	784	66	0
57	785	67	0
57	786	68	0
57	787	69	0
58	779	61	0.973
58	780	62	0.973
58	781	63	0.973
58	782	64	0.973
58	783	65	0.973
58	784	66	0.973
58	785	67	0.973
58	786	68	0.973
58	787	69	0.973
59	779	61	13.120630062513
59	780	62	13.106859271014
59	781	63	13.058959787916
59	782	64	13.103471151709
59	783	65	13.124553168339
59	784	66	13.101071046162
59	785	67	13.066961224926
59	786	68	13.091838455344
59	787	69	13.047636153877
60	779	61	1000.7876558385
60	780	62	1000.7876558385
60	781	63	1000.7876558385
60	782	64	1000.7876558385
60	783	65	1000.7876558385
60	784	66	1000.7876558385
60	785	67	1000.7876558385
60	786	68	1000.7876558385
60	787	69	1000.7876558385
61	779	61	1587.0880649351
61	780	62	1587.0880649351
61	781	63	1587.0880649351
61	782	64	1587.0880649351
61	783	65	1587.0880649351
61	784	66	1587.0880649351
61	785	67	1587.0880649351
61	786	68	1587.0880649351
61	787	69	1587.0880649351
62	779	61	0.051907270902301
62	780	62	-0.013770791499409
62	781	63	-0.047899483097718
62	782	64	0.044511363792699
62	783	65	0.021082016630098
62	784	66	-0.023482122176793
62	785	67	-0.034109821235761
62	786	68	0.024877230417916
62	787	69	-0.044202301467305
63	779	61	2.1157325425366
63	780	62	1.9067788836152
63	781	63	1.7949449096024
63	782	64	2.0905167692844
63	783	65	2.018657281618
63	784	66	1.8755812693031
63	785	67	1.8390424703711
63	786	68	2.0273294715886
63	787	69	1.8056203773764
64	779	61	12.858246294137
64	780	62	12.850442351634
64	781	63	12.884188423835
64	782	64	12.885638118932
64	783	65	12.873921811712
64	784	66	12.943541450825
64	785	67	12.831428982097
64	786	68	12.894589150458
64	787	69	12.834390306608
65	779	61	248.73
65	780	62	248.73
65	781	63	248.73
65	782	64	248.73
65	783	65	248.73
65	784	66	248.73
65	785	67	248.73
65	786	68	248.73
65	787	69	248.73
66	779	61	1581.637
66	780	62	1581.637
66	781	63	1581.637
66	782	64	1581.637
66	783	65	1581.637
66	784	66	1581.637
66	785	67	1581.637
66	786	68	1581.637
66	787	69	1581.637
67	779	61	1.0666285746597
67	780	62	-0.0078039425029424
67	781	63	0.033746072200593
67	782	64	0.0014496950968166
67	783	65	-0.011716307220048
67	784	66	0.069619639113078
67	785	67	-0.11211246872786
67	786	68	0.063160168360918
67	787	69	-0.060198843849356
68	779	61	5.2319796154975
68	780	62	1.9017688473431
68	781	63	2.0338982367962
68	782	64	1.9337522392415
68	783	65	1.8917952690996
68	784	66	2.1518910576051
68	785	67	1.5774575338897
68	786	68	2.1263705571995
68	787	69	1.7382289437222
69	779	61	0
69	780	62	0
69	781	63	0
69	782	64	0
69	783	65	0
69	784	66	0
69	785	67	0
69	786	68	0
69	787	69	0
70	779	61	239.99029865729
70	780	62	240.20562218226
70	781	63	240.44280281187
70	782	64	240.70203523205
70	783	65	240.98400775881
70	784	66	241.28782949952
70	785	67	241.60659798977
70	786	68	241.95562584753
70	787	69	242.31253391338
71	779	61	1652.7945765254
71	780	62	1671.5205056494
71	781	63	1692.1472702364
71	782	64	1714.6918014377
71	783	65	1739.2139596723
71	784	66	1765.6362671452
71	785	67	1793.8165899943
71	786	68	1822.6848837711
71	787	69	1851.5540909763
72	779	61	0
72	780	62	0
72	781	63	0
72	782	64	0
72	783	65	0
72	784	66	0
72	785	67	0
72	786	68	0
72	787	69	0
73	779	61	0.973
73	780	62	0.973
73	781	63	0.973
73	782	64	0.973
73	783	65	0.973
73	784	66	0.973
73	785	67	0.973
73	786	68	0.973
73	787	69	0.973
74	779	61	0
74	780	62	0
74	781	63	0
74	782	64	0
74	783	65	0
74	784	66	0
74	785	67	0
74	786	68	0
74	787	69	0
75	779	61	402.98486863889
75	780	62	402.79577359732
75	781	63	402.65806027926
75	782	64	402.52194611432
75	783	65	402.38569695824
75	784	66	402.24968102335
75	785	67	402.11344682788
75	786	68	401.97741899133
75	787	69	401.84134092418
76	779	61	3832.0434198809
76	780	62	3817.4263012682
76	781	63	3802.8136217948
76	782	64	3788.1990331879
76	783	65	3773.5699505718
76	784	66	3758.965908932
76	785	67	3744.3384326376
76	786	68	3729.7331131159
76	787	69	3715.1224003316
77	779	61	0
77	780	62	0
77	781	63	0
77	782	64	0
77	783	65	0
77	784	66	0
77	785	67	0
77	786	68	0
77	787	69	0
78	779	61	0.973
78	780	62	0.973
78	781	63	0.973
78	782	64	0.973
78	783	65	0.973
78	784	66	0.973
78	785	67	0.973
78	786	68	0.973
78	787	69	0.973
79	779	61	17.764173313812
79	780	62	19.564025327416
79	781	63	21.531039584621
79	782	64	23.299333539663
79	783	65	25.380772588844
79	784	66	27.2152578281
79	785	67	28.882308104193
79	786	68	28.816565866342
79	787	69	28.838541061447
80	779	61	662.61764615721
80	780	62	662.37337072962
80	781	63	662.13493850168
80	782	64	661.89288413397
80	783	65	661.64762739233
80	784	66	661.40231937211
80	785	67	661.15703806918
80	786	68	660.91185905474
80	787	69	660.66630803565
81	779	61	2835.346140005
81	780	62	2815.296408459
81	781	63	2795.3564158166
81	782	64	2775.3080691569
81	783	65	2755.2665667616
81	784	66	2735.2208740643
81	785	67	2715.1773646086
81	786	68	2695.1422138018
81	787	69	2675.0951167527
82	779	61	1.9244548599399
82	780	62	1.7998520136043
82	781	63	1.9670142572047
82	782	64	1.768293955042
82	783	65	2.0814390491811
82	784	66	1.8344852392562
82	785	67	1.6670502760931
82	786	68	-0.065742237851957
82	787	69	0.021975195105188
83	779	61	10.7237084224
83	780	62	11.231692114687
83	781	63	13.277534116676
83	782	64	13.331608193308
83	783	65	16.576427888368
83	784	66	16.317157565547
83	785	67	16.332722131798
83	786	68	4.2540899631623
83	787	69	4.8695068563986
84	779	61	14.644500639829
84	780	62	14.658398528438
84	781	63	14.562064178031
84	782	64	14.607823900256
84	783	65	14.590437261314
84	784	66	14.66247718921
84	785	67	14.594061719665
84	786	68	14.57532635738
84	787	69	14.60970311714
85	779	61	647.84883958597
85	780	62	647.47223279326
85	781	63	647.09838484728
85	782	64	646.7667301563
85	783	65	646.49028252649
85	784	66	646.26903195742
85	785	67	646.10296511516
85	786	68	645.68460846144
85	787	69	641.22230979256
86	779	61	2150.5244734047
86	780	62	2119.8301677479
86	781	63	2089.3607143405
86	782	64	2062.3301066755
86	783	65	2039.7989993992
86	784	66	2021.7665774528
86	785	67	2008.2317540917
86	786	68	1998.7639483289
86	787	69	1991.9070513582
87	779	61	0.030720481222961
87	780	62	0.013897888609208
87	781	63	-0.096334350407123
87	782	64	0.045759722224902
87	783	65	-0.017386638941243
87	784	66	0.072039927896112
87	785	67	-0.068415469545872
87	786	68	-0.018735362284351
87	787	69	0.034376759759617
88	779	61	2.2150057722235
88	780	62	2.1571771716933
88	781	63	1.7596530889502
88	782	64	2.2637359446569
88	783	65	2.0396372298267
88	784	66	2.3630845551665
88	785	67	1.8605337574677
88	786	68	2.0333434229325
88	787	69	2.2238797590317
89	779	61	19.991094064226
89	780	62	20.055312282555
89	781	63	20.070838654972
89	782	64	20.075169738713
89	783	65	20.024319125512
89	784	66	20.08737477008
89	785	67	20.060219656657
89	786	68	20.003300153823
89	787	69	20.062333331795
90	779	61	-0.081399730145929
90	780	62	0.064218218328897
90	781	63	0.015526372417806
90	782	64	0.0043310837401087
90	783	65	-0.050850613201039
90	784	66	0.063055644568522
90	785	67	-0.027155113422776
90	786	68	-0.056919502834791
90	787	69	0.059033177972307
91	779	61	2.420242604194
91	780	62	3.133035759803
91	781	63	2.9002311214361
91	782	64	2.8467757872515
91	783	65	2.5723053758602
91	784	66	3.1330302654548
91	785	67	2.6921500387844
91	786	68	2.5399588633521
91	787	69	3.1091962322139
92	779	61	30.674616322567
92	780	62	30.64721247996
92	781	63	29.508609064857
92	782	64	25.008609064857
92	783	65	20.508609064857
92	784	66	16.011326228507
92	785	67	11.511326228507
92	786	68	8.8532230246114
92	787	69	8.7633530763374
93	779	61	0.019863789007069
93	780	62	-0.027403842606581
93	781	63	-1.1386034151028
93	782	64	-4.5
93	783	65	-4.5
93	784	66	-4.4972828363507
93	785	67	-4.5
93	786	68	-2.6581032038953
93	787	69	-0.089869948273991
94	779	61	5.4028949305806
94	780	62	5.0451844562281
94	781	63	0.973
94	782	64	0.973
94	783	65	0.973
94	784	66	0.973
94	785	67	0.973
94	786	68	0.973
94	787	69	1.4051120836038

