version 3
run WithChannelSwitching-0-20231009-06:07:17-5595
attr configname WithChannelSwitching
attr datetime 20231009-06:07:17
attr datetimef 20231009-060717
attr experiment WithChannelSwitching
attr inifile omnetpp.ini
attr iterationvars ""
attr iterationvarsd ""
attr iterationvarsf ""
attr measurement ""
attr network RSUExampleScenario
attr processid 5595
attr repetition 0
attr replication #0
attr resultdir results
attr runnumber 0
attr seedset 0
config image-path ../../images
config *.**.nic.mac1609_4.useServiceChannel true
config *.node[*].appl.dataOnSch true
config *.rsu[*].appl.dataOnSch true
config cmdenv-express-mode true
config cmdenv-autoflush true
config cmdenv-status-frequency 1s
config **.cmdenv-log-level info
config image-path ../../images
config network RSUExampleScenario
config debug-on-errors true
config print-undisposed true
config sim-time-limit 200s
config **.scalar-recording true
config **.vector-recording true
config *.playgroundSizeX 2000m
config *.playgroundSizeY 5000m
config *.playgroundSizeZ 50m
config *.annotations.draw true
config *.obstacles.obstacles "xmldoc(\"config.xml\", \"//AnalogueModel[@type='SimpleObstacleShadowing']/obstacles\")"
config *.manager.updateInterval 1s
config *.manager.host "\"localhost\""
config *.manager.port 9999
config *.manager.autoShutdown true
config *.manager.launchConfig "xmldoc(\"erlangen.launchd.xml\")"
config *.rsu[0].mobility.x 1000
config *.rsu[0].mobility.y 2000
config *.rsu[0].mobility.z 3
config *.rsu[1].mobility.x 500
config *.rsu[1].mobility.y 1500
config *.rsu[1].mobility.z 4
config *.rsu[*].applType "\"TraCIDemoRSU11p\""
config *.rsu[*].appl.headerLength "80 bit"
config *.rsu[*].appl.sendBeacons false
config *.rsu[*].appl.dataOnSch false
config *.rsu[*].appl.beaconInterval 1s
config *.rsu[*].appl.beaconUserPriority 7
config *.rsu[*].appl.dataUserPriority 5
config *.rsu[*].nic.phy80211p.antennaOffsetZ "0 m"
config *.connectionManager.sendDirect true
config *.connectionManager.maxInterfDist 2600m
config *.connectionManager.drawMaxIntfDist false
config *.**.nic.mac1609_4.useServiceChannel false
config *.**.nic.mac1609_4.txPower 20mW
config *.**.nic.mac1609_4.bitrate 6Mbps
config *.**.nic.phy80211p.minPowerLevel -110dBm
config *.**.nic.phy80211p.useNoiseFloor true
config *.**.nic.phy80211p.noiseFloor -98dBm
config *.**.nic.phy80211p.decider "xmldoc(\"config.xml\")"
config *.**.nic.phy80211p.analogueModels "xmldoc(\"config.xml\")"
config *.**.nic.phy80211p.usePropagationDelay true
config *.**.nic.phy80211p.antenna "xmldoc(\"antenna.xml\", \"/root/Antenna[@id='monopole']\")"
config *.node[*].nic.phy80211p.antennaOffsetY "0 m"
config *.node[*].nic.phy80211p.antennaOffsetZ "1.895 m"
config *.node[*].applType "\"TraCIDemo11p\""
config *.node[*].appl.headerLength "80 bit"
config *.node[*].appl.sendBeacons false
config *.node[*].appl.dataOnSch false
config *.node[*].appl.beaconInterval 0s
config *.node[*].veinsmobility.x 0
config *.node[*].veinsmobility.y 0
config *.node[*].veinsmobility.z 0
config *.node[*].veinsmobility.setHostSpeed false
config *.node[*0].veinsmobility.accidentCount 1
config *.node[*0].veinsmobility.accidentStart 83s
config *.node[*0].veinsmobility.accidentDuration 50s

vector 0 RSUExampleScenario.node[0].veinsmobility posx ETV
vector 1 RSUExampleScenario.node[0].veinsmobility posy ETV
vector 2 RSUExampleScenario.node[1].veinsmobility posx ETV
vector 3 RSUExampleScenario.node[1].veinsmobility posy ETV
vector 4 RSUExampleScenario.node[0].veinsmobility speed ETV
vector 5 RSUExampleScenario.node[2].veinsmobility posx ETV
vector 6 RSUExampleScenario.node[2].veinsmobility posy ETV
vector 7 RSUExampleScenario.node[0].veinsmobility acceleration ETV
vector 8 RSUExampleScenario.node[0].veinsmobility co2emission ETV
vector 9 RSUExampleScenario.node[1].veinsmobility speed ETV
vector 10 RSUExampleScenario.node[3].veinsmobility posx ETV
vector 11 RSUExampleScenario.node[3].veinsmobility posy ETV
vector 12 RSUExampleScenario.node[1].veinsmobility acceleration ETV
vector 13 RSUExampleScenario.node[1].veinsmobility co2emission ETV
vector 14 RSUExampleScenario.node[2].veinsmobility speed ETV
vector 15 RSUExampleScenario.node[4].veinsmobility posx ETV
vector 16 RSUExampleScenario.node[4].veinsmobility posy ETV
vector 17 RSUExampleScenario.node[2].veinsmobility acceleration ETV
vector 18 RSUExampleScenario.node[2].veinsmobility co2emission ETV
vector 19 RSUExampleScenario.node[3].veinsmobility speed ETV
vector 20 RSUExampleScenario.node[5].veinsmobility posx ETV
vector 21 RSUExampleScenario.node[5].veinsmobility posy ETV
vector 22 RSUExampleScenario.node[3].veinsmobility acceleration ETV
vector 23 RSUExampleScenario.node[3].veinsmobility co2emission ETV
vector 24 RSUExampleScenario.node[4].veinsmobility speed ETV
vector 25 RSUExampleScenario.node[6].veinsmobility posx ETV
vector 26 RSUExampleScenario.node[6].veinsmobility posy ETV
vector 27 RSUExampleScenario.node[4].veinsmobility acceleration ETV
vector 28 RSUExampleScenario.node[4].veinsmobility co2emission ETV
vector 29 RSUExampleScenario.node[5].veinsmobility speed ETV
vector 30 RSUExampleScenario.node[7].veinsmobility posx ETV
vector 31 RSUExampleScenario.node[7].veinsmobility posy ETV
vector 32 RSUExampleScenario.node[5].veinsmobility acceleration ETV
vector 33 RSUExampleScenario.node[5].veinsmobility co2emission ETV
vector 34 RSUExampleScenario.node[6].veinsmobility speed ETV
vector 35 RSUExampleScenario.node[8].veinsmobility posx ETV
vector 36 RSUExampleScenario.node[8].veinsmobility posy ETV
vector 37 RSUExampleScenario.node[6].veinsmobility acceleration ETV
vector 38 RSUExampleScenario.node[6].veinsmobility co2emission ETV
vector 39 RSUExampleScenario.node[7].veinsmobility speed ETV
vector 40 RSUExampleScenario.node[9].veinsmobility posx ETV
vector 41 RSUExampleScenario.node[9].veinsmobility posy ETV
vector 42 RSUExampleScenario.node[7].veinsmobility acceleration ETV
vector 43 RSUExampleScenario.node[7].veinsmobility co2emission ETV
vector 44 RSUExampleScenario.node[8].veinsmobility speed ETV
vector 45 RSUExampleScenario.node[10].veinsmobility posx ETV
vector 46 RSUExampleScenario.node[10].veinsmobility posy ETV
vector 47 RSUExampleScenario.node[8].veinsmobility acceleration ETV
vector 48 RSUExampleScenario.node[8].veinsmobility co2emission ETV
vector 49 RSUExampleScenario.node[9].veinsmobility speed ETV
vector 50 RSUExampleScenario.node[11].veinsmobility posx ETV
vector 51 RSUExampleScenario.node[11].veinsmobility posy ETV
vector 52 RSUExampleScenario.node[9].veinsmobility acceleration ETV
vector 53 RSUExampleScenario.node[9].veinsmobility co2emission ETV
vector 54 RSUExampleScenario.node[10].veinsmobility speed ETV
vector 55 RSUExampleScenario.node[12].veinsmobility posx ETV
vector 56 RSUExampleScenario.node[12].veinsmobility posy ETV
vector 57 RSUExampleScenario.node[10].veinsmobility acceleration ETV
vector 58 RSUExampleScenario.node[10].veinsmobility co2emission ETV
vector 59 RSUExampleScenario.node[11].veinsmobility speed ETV
vector 60 RSUExampleScenario.node[13].veinsmobility posx ETV
vector 61 RSUExampleScenario.node[13].veinsmobility posy ETV
vector 62 RSUExampleScenario.node[11].veinsmobility acceleration ETV
vector 63 RSUExampleScenario.node[11].veinsmobility co2emission ETV
vector 64 RSUExampleScenario.node[12].veinsmobility speed ETV
vector 65 RSUExampleScenario.node[14].veinsmobility posx ETV
vector 66 RSUExampleScenario.node[14].veinsmobility posy ETV
vector 67 RSUExampleScenario.node[12].veinsmobility acceleration ETV
vector 68 RSUExampleScenario.node[12].veinsmobility co2emission ETV
vector 69 RSUExampleScenario.node[13].veinsmobility speed ETV
vector 70 RSUExampleScenario.node[15].veinsmobility posx ETV
vector 71 RSUExampleScenario.node[15].veinsmobility posy ETV
vector 72 RSUExampleScenario.node[13].veinsmobility acceleration ETV
vector 73 RSUExampleScenario.node[13].veinsmobility co2emission ETV
vector 74 RSUExampleScenario.node[14].veinsmobility speed ETV
vector 75 RSUExampleScenario.node[16].veinsmobility posx ETV
vector 76 RSUExampleScenario.node[16].veinsmobility posy ETV
vector 77 RSUExampleScenario.node[14].veinsmobility acceleration ETV
vector 78 RSUExampleScenario.node[14].veinsmobility co2emission ETV
vector 79 RSUExampleScenario.node[15].veinsmobility speed ETV
vector 80 RSUExampleScenario.node[17].veinsmobility posx ETV
vector 81 RSUExampleScenario.node[17].veinsmobility posy ETV
vector 82 RSUExampleScenario.node[15].veinsmobility acceleration ETV
vector 83 RSUExampleScenario.node[15].veinsmobility co2emission ETV
vector 84 RSUExampleScenario.node[16].veinsmobility speed ETV
vector 85 RSUExampleScenario.node[18].veinsmobility posx ETV
vector 86 RSUExampleScenario.node[18].veinsmobility posy ETV
vector 87 RSUExampleScenario.node[16].veinsmobility acceleration ETV
vector 88 RSUExampleScenario.node[16].veinsmobility co2emission ETV
vector 89 RSUExampleScenario.node[17].veinsmobility speed ETV
vector 90 RSUExampleScenario.node[17].veinsmobility acceleration ETV
vector 91 RSUExampleScenario.node[17].veinsmobility co2emission ETV
vector 92 RSUExampleScenario.node[18].veinsmobility speed ETV
vector 93 RSUExampleScenario.node[18].veinsmobility acceleration ETV
vector 94 RSUExampleScenario.node[18].veinsmobility co2emission ETV
8	221	4	4.3946844027024
8	321	5	5.614289894367
8	441	6	6.1221580277929
8	581	7	6.5409263347127
8	741	8	7.8182918753039
8	921	9	9.5655338382901
8	1121	10	2.4301931556581
8	1341	11	1.9882929325419
8	1581	12	1.9425507484042
8	1841	13	2.5216358992566
8	2121	14	1.9870619227446
8	2421	15	0.973
8	2741	16	0.973
8	3081	17	0.973
8	3441	18	0.973
8	3821	19	1.9746343717134
8	4221	20	4.6787474026819
8	4641	21	5.8744419811233
8	5062	22	7.1361047855132
8	5483	23	7.3965736570397
8	5904	24	9.1114731523828
8	6325	25	5.5275893418632
8	6746	26	2.0857058967821
8	7167	27	2.5159143241942
8	7588	28	1.7786864136037
8	8009	29	2.614890444587
8	8430	30	1.7766850380551
8	9521	31	2.2819557220644
8	10357	32	0.973
8	10778	33	0.973
8	11199	34	0.973
8	11620	35	1.4151372099089
8	12041	36	5.0301903169953
8	12462	37	7.0038956884407
8	12883	38	7.5284406840705
8	13304	39	8.0544299089122
8	13725	40	9.2935888135413
8	14146	41	10.307616467751
8	14567	42	12.692258007208
8	14988	43	12.710882007775
8	15409	44	15.366321230364
8	15830	45	16.308571273861
7	221	4	2.0351562025188
7	321	5	2.0728239309206
7	441	6	1.8459985194961
7	581	7	1.6806377231912
7	741	8	1.7988098975806
7	921	9	1.9810560159372
7	1121	10	0.061173239194323
7	1341	11	-0.055620486089028
7	1581	12	-0.066165983418468
7	1841	13	0.086919081138912
7	2121	14	-0.055021906716284
7	2421	15	-1.0667152242058
7	2741	16	-4.5
7	3081	17	-3.08
7	3441	18	-2.7838188203738
7	3821	19	0.57896004683105
7	4221	20	2.0306479798839
7	4641	21	2.057608204328
7	5062	22	2.0855897961231
7	5483	23	1.8179767637514
7	5904	24	2.0004713718919
7	6325	25	0.8951480868608
7	6746	26	-0.028667865144088
7	7167	27	0.084071486941538
7	7588	28	-0.11067502447637
7	8009	29	0.11056981048314
7	8430	30	-0.11119982218836
7	9521	31	0.024247954648454
7	10357	32	-3.1519432577069
7	10778	33	-4.5
7	11199	34	-0.84091193384368
7	11620	35	-0.03449125137413
7	12041	36	1.6722749320092
7	12462	37	2.0597356032417
7	12883	38	1.8721967888274
7	13304	39	1.7461057971278
7	13725	40	1.8163123766356
7	14146	41	1.8135257953685
7	14567	42	2.0594877293706
7	14988	43	1.8308324989258
7	15409	44	2.0654450935917
7	15830	45	1.9878592245514
4	141	3	4.0239826316459
4	221	4	6.0591388341648
4	321	5	8.1319627650853
4	441	6	9.9779612845814
4	581	7	11.658599007773
4	741	8	13.457408905353
4	921	9	15.43846492129
4	1121	10	15.499638160485
4	1341	11	15.444017674396
4	1581	12	15.377851690977
4	1841	13	15.464770772116
4	2121	14	15.4097488654
4	2421	15	14.343033641194
4	2741	16	9.8430336411941
4	3081	17	6.7630336411941
4	3441	18	3.9792148208203
4	3821	19	4.5581748676513
4	4221	20	6.5888228475353
4	4641	21	8.6464310518633
4	5062	22	10.732020847986
4	5483	23	12.549997611738
4	5904	24	14.55046898363
4	6325	25	15.44561707049
4	6746	26	15.416949205346
4	7167	27	15.501020692288
4	7588	28	15.390345667811
4	8009	29	15.500915478295
4	8430	30	15.389715656106
4	9521	31	15.413963610755
4	10357	32	12.262020353048
4	10778	33	7.7620203530479
4	11199	34	6.9211084192042
4	11620	35	6.8866171678301
4	12041	36	8.5588920998392
4	12462	37	10.618627703081
4	12883	38	12.490824491908
4	13304	39	14.236930289036
4	13725	40	16.053242665672
4	14146	41	17.86676846104
4	14567	42	19.926256190411
4	14988	43	21.757088689337
4	15409	44	23.822533782928
4	15830	45	25.81039300748
1	81	2	1972.6116627001
1	141	3	1969.4987704001
1	221	4	1964.3382489102
1	321	5	1957.1330769849
1	441	6	1948.0705383113
1	581	7	1937.1422629318
1	741	8	1924.5332875437
1	921	9	1909.9992301339
1	1121	10	1894.552027472
1	1341	11	1879.118247007
1	1581	12	1863.6812070536
1	1841	13	1848.2501546527
1	2121	14	1832.812066788
1	2421	15	1817.5947208562
1	2741	16	1805.7280142902
1	3081	17	1798.1476301697
1	3441	18	1793.9540190822
1	3821	19	1796.7570012148
1	4221	20	1802.3978558184
1	4641	21	1810.1592116916
1	5062	22	1819.9048564456
1	5483	23	1831.6688446875
1	5904	24	1845.347352156
1	6325	25	1860.6252111531
1	6746	26	1876.0534874574
1	7167	27	1891.5006354217
1	7588	28	1906.9407322672
1	8009	29	1922.3857182196
1	8430	30	1937.8135200313
1	9521	31	1953.2477221645
1	10357	32	1967.404283874
1	10778	33	1977.1907570382
1	11199	34	1984.2697983537
1	11620	35	1988.7836890499
1	12041	36	1988.9563058424
1	12462	37	1989.0611151059
1	12883	38	1989.1863376351
1	13304	39	1989.3323682652
1	13725	40	1989.4953039738
1	14146	41	1989.678612842
1	14567	42	1989.8819194924
1	14988	43	1990.1010885556
1	15409	44	1990.3487216898
1	15830	45	1990.6171599648
0	81	2	905.6174603461
0	141	3	905.58073364764
0	221	4	905.51984849698
0	321	5	905.43484003824
0	441	6	905.32791789218
0	581	7	905.19898330791
0	741	8	905.05021939565
0	921	9	904.87874287398
0	1121	10	904.69649283139
0	1341	11	904.51440114731
0	1581	12	904.33227100695
0	1841	13	904.15021150927
0	2121	14	903.96806900538
0	2421	15	903.78853087121
0	2741	16	903.6485244361
0	3081	17	903.55972116899
0	3441	18	902.28219347833
0	3821	19	900.34338304145
0	4221	20	900.4088788134
0	4641	21	900.50044415247
0	5062	22	900.61541932961
0	5483	23	900.7542061073
0	5904	24	900.91557960889
0	6325	25	901.09582161327
0	6746	26	901.27783818024
0	7167	27	901.46007738742
0	7588	28	901.64223340835
0	8009	29	901.82444710899
0	8430	30	902.00645807809
0	9521	31	902.18854455559
0	10357	32	902.35555794786
0	10778	33	902.47101480207
0	11199	34	902.46305019495
0	11620	35	898.35061744233
0	12041	36	890.63402375252
0	12462	37	880.89452590325
0	12883	38	869.25810642412
0	13304	39	855.82738307279
0	13725	40	840.58652603088
0	14146	41	823.53296310163
0	14567	42	804.51653033955
0	14988	43	783.60468685462
0	15409	44	760.73305275329
0	15830	45	735.81661206305
23	581	7	4.0895159373932
23	741	8	5.0116229381608
23	921	9	6.0193584237935
23	1121	10	7.2812948693241
23	1341	11	0.973
23	1581	12	0.973
23	1841	13	2.2577434861693
23	2121	14	5.9592674320966
23	2421	15	7.5557408643583
23	2741	16	7.8432796120425
23	3081	17	5.2737044569059
23	3441	18	2.3164760811723
23	3821	19	1.9964159367531
23	4221	20	2.2118042970549
23	4641	21	1.8474824027056
23	5062	22	1.82071145953
23	5483	23	2.252976036312
23	5904	24	1.8740041462938
23	6325	25	2.4300865483668
23	6746	26	1.8028564457058
23	7167	27	0.973
23	7588	28	0.973
23	8009	29	0.973
23	8430	30	6.5743547044988
23	9521	31	7.6974463943789
23	10357	32	7.8844574442006
23	10778	33	3.9585029758376
23	11199	34	1.90653982878
23	11620	35	2.2406164296502
23	12041	36	1.7815138594641
23	12462	37	2.0427796768391
23	12883	38	2.2285124475065
23	13304	39	2.2054379261266
23	13725	40	1.8700335016242
23	14146	41	2.1424681945217
23	14567	42	1.8839492357961
23	14988	43	2.2052006413277
23	15409	44	1.8441296785243
23	15830	45	2.2197025388967
23	16251	46	1.9245029908658
23	16652	47	0.973
23	17053	48	0.973
23	17454	49	0.973
23	17855	50	2.2780953551237
23	18256	51	5.4533993237644
23	18657	52	7.1045466897785
23	19058	53	8.4472496219472
23	19459	54	5.7161668136101
23	19860	55	2.3450251500457
23	20261	56	1.7306443838409
23	21050	57	2.2341431090358
23	21451	58	2.1360784460821
23	21852	59	2.0888552819209
23	22253	60	1.8226619074397
23	23098	61	2.0727000848263
23	23499	62	1.9362549026931
23	23900	63	1.9875666079435
22	581	7	1.8601921348413
22	741	8	1.8492584048561
22	921	9	1.8685810117889
22	1121	10	1.9500104025309
22	1341	11	-3.0184399821877
22	1581	12	-2.0905873748423
22	1841	13	0.46314126035431
22	2121	14	2.0070383188361
22	2421	15	2.1525565232569
22	2741	16	1.8802052216465
22	3081	17	0.96041777174608
22	3441	18	0.079996077253018
22	3821	19	-0.014025789061561
22	4221	20	0.047963589567226
22	4641	21	-0.057755329201465
22	5062	22	-0.064017874605488
22	5483	23	0.06215391230071
22	5904	24	-0.048561097634956
22	6325	25	0.11206397799542
22	6746	26	-0.070714497279841
22	7167	27	-0.44762692783436
22	7588	28	-4.4993699845805
22	8009	29	-1.66
22	8430	30	2.1365481249057
22	9521	31	2.0933696925291
22	10357	32	1.8170710458257
22	10778	33	0.56635347979951
22	11199	34	-0.039146455912851
22	11620	35	0.057883174021264
22	12041	36	-0.075762315976899
22	12462	37	0.0017324262438336
22	12883	38	0.054963726506104
22	13304	39	0.046569728245958
22	13725	40	-0.050892693870701
22	14146	41	0.028734839323443
22	14567	42	-0.046301974575035
22	14988	43	0.047216486621183
22	15409	44	-0.057813375990373
22	15830	45	0.05170393842738
22	16251	46	-0.034480102586093
22	16652	47	-1.5853467089855
22	17053	48	-4.4453227421815
22	17454	49	-1.5324239691658
22	17855	50	0.47998065617867
22	18256	51	1.8266496954951
22	18657	52	2.0540941235074
22	19058	53	2.0937241755053
22	19459	54	1.0896682093972
22	19860	55	0.087454140726477
22	20261	56	-0.091305509100202
22	21050	57	0.056011550072581
22	21451	58	0.026212380658835
22	21852	59	0.011923385630361
22	22253	60	-0.0647871816298
22	23098	61	0.0088979012263017
22	23499	62	-0.03057515364606
22	23900	63	-0.01493582601659
19	441	6	4.1008792609036
19	581	7	5.961071395745
19	741	8	7.8103298006011
19	921	9	9.67891081239
19	1121	10	11.628921214921
19	1341	11	8.6104812327332
19	1581	12	6.5198938578909
19	1841	13	6.9830351182452
19	2121	14	8.9900734370814
19	2421	15	11.142629960338
19	2741	16	13.022835181985
19	3081	17	13.983252953731
19	3441	18	14.063249030984
19	3821	19	14.049223241922
19	4221	20	14.09718683149
19	4641	21	14.039431502288
19	5062	22	13.975413627683
19	5483	23	14.037567539983
19	5904	24	13.989006442348
19	6325	25	14.101070420344
19	6746	26	14.030355923064
19	7167	27	13.58272899523
19	7588	28	9.0833590106491
19	8009	29	7.4233590106491
19	8430	30	9.5599071355547
19	9521	31	11.653276828084
19	10357	32	13.47034787391
19	10778	33	14.036701353709
19	11199	34	13.997554897796
19	11620	35	14.055438071817
19	12041	36	13.979675755841
19	12462	37	13.981408182084
19	12883	38	14.036371908591
19	13304	39	14.082941636836
19	13725	40	14.032048942966
19	14146	41	14.060783782289
19	14567	42	14.014481807714
19	14988	43	14.061698294335
19	15409	44	14.003884918345
19	15830	45	14.055588856772
19	16251	46	14.021108754186
19	16652	47	12.435762045201
19	17053	48	7.9904393030193
19	17454	49	6.4580153338535
19	17855	50	6.9379959900322
19	18256	51	8.7646456855273
19	18657	52	10.818739809035
19	19058	53	12.91246398454
19	19459	54	14.002132193937
19	19860	55	14.089586334664
19	20261	56	13.998280825564
19	21050	57	14.054292375636
19	21451	58	14.080504756295
19	21852	59	14.092428141925
19	22253	60	14.027640960296
19	23098	61	14.036538861522
19	23499	62	14.005963707876
19	23900	63	13.991027881859
11	321	5	2133.1662169838
11	441	6	2136.407205849
11	581	7	2141.4738230525
11	741	8	2148.4627423168
11	921	9	2157.3413990491
11	1121	10	2168.0782709968
11	1341	11	2178.5883109846
11	1581	12	2185.3044586526
11	1841	13	2187.3590060183
11	2121	14	2187.4699096923
11	2421	15	2187.6043847615
11	2741	16	2187.7645270894
11	3081	17	2187.9470227026
11	3441	18	2188.1279368194
11	3821	19	2188.3106030892
11	4221	20	2188.4934188668
11	4641	21	2188.6739481331
11	5062	22	2188.8592738121
11	5483	23	2189.0457088127
11	5904	24	2189.2269350912
11	6325	25	2189.4128013774
11	6746	26	2189.5984116271
11	7167	27	2189.7824933659
11	7588	28	2188.5480838537
11	8009	29	2188.4307482684
11	8430	30	2188.5486178923
11	9521	31	2188.6974260122
11	10357	32	2188.852859922
11	10778	33	2188.9933251215
11	11199	34	2189.2086608501
11	11620	35	2189.4241599259
11	12041	36	2189.635730035
11	12462	37	2189.8288396169
11	12883	38	2190.0210502681
11	13304	39	2190.2133153337
11	13725	40	2190.4051703617
11	14146	41	2190.5999776007
11	14567	42	2190.7915240547
11	14988	43	2190.983686771
11	15409	44	2191.1669008812
11	15830	45	2191.3595672217
11	16251	46	2191.5523037197
11	16652	47	2191.7398281027
11	17053	48	2191.8784086876
11	17454	49	2190.6436790338
11	17855	50	2184.4597412513
11	18256	51	2176.528337039
11	18657	52	2166.6091413369
11	19058	53	2154.6714866049
11	19459	54	2140.9448676979
11	19860	55	2126.9168439424
11	20261	56	2112.8821272541
11	21050	57	2098.8350829599
11	21451	58	2084.7886430701
11	21852	59	2070.7714064343
11	22253	60	2056.7183980872
11	23098	61	2042.6758084533
11	23499	62	2028.6538462174
11	23900	63	2014.6202325804
10	321	5	1258.254552789
10	441	6	1258.2412208727
10	581	7	1258.220379173
10	741	8	1258.1916300193
10	921	9	1258.1551073671
10	1121	10	1258.1109408844
10	1341	11	1258.0626260989
10	1581	12	1257.0034618776
10	1841	13	1251.0685847345
10	2121	14	1243.0040938655
10	2421	15	1232.8002183588
10	2741	16	1220.6487289559
10	3081	17	1206.8010876899
10	3441	18	1192.7619843537
10	3821	19	1178.7284496267
10	4221	20	1164.6834287963
10	4641	21	1150.6573962427
10	5062	22	1136.6263377196
10	5483	23	1122.5576657515
10	5904	24	1108.5352192542
10	6325	25	1094.4941626157
10	6746	26	1080.4724479602
10	7167	27	1066.4955386895
10	7588	28	1055.5210154192
10	8009	29	1048.2064479981
10	8430	30	1039.6165148386
10	9521	31	1028.9279867812
10	10357	32	1016.308212569
10	10778	33	1002.3397014601
10	11199	34	988.31596213905
10	11620	35	974.2815848252
10	12041	36	960.24644361987
10	12462	37	946.20865656136
10	12883	38	932.16551102461
10	13304	39	918.11838990268
10	13725	40	904.0830278091
10	14146	41	890.06083918224
10	14567	42	876.04346967978
10	14988	43	861.98100209802
10	15409	44	847.937348718
10	15830	45	833.90378107396
10	16251	46	819.86510325879
10	16652	47	806.20606916102
10	17053	48	796.21767880842
10	17454	49	789.84261516428
10	17855	50	788.37848872348
10	18256	51	788.26896486647
10	18657	52	788.1370562462
10	19058	53	787.97830551556
10	19459	54	787.79576457016
10	19860	55	787.60921544719
10	20261	56	787.42257731947
10	21050	57	787.23577525532
10	21451	58	787.04898122874
10	21852	59	786.86257555631
10	22253	60	786.6756941803
10	23098	61	786.48895135564
10	23499	62	786.30248284069
10	23900	63	786.11585938169
28	741	8	4.1389427359396
28	921	9	5.886744953391
28	1121	10	6.3823684436662
28	1341	11	7.9901101931499
28	1581	12	1.8782576435012
28	1841	13	2.028474755143
28	2121	14	1.9117049745723
28	2421	15	1.6207348243207
28	2741	16	2.147380391013
28	3081	17	1.960125898308
28	3441	18	1.8100226767031
28	3821	19	1.5624104369333
28	4221	20	1.9252616060542
28	4641	21	2.0483612818559
28	5062	22	0.973
28	5483	23	0.973
28	5904	24	0.973
28	6325	25	1.6504282637783
28	6746	26	4.0332521556871
28	7167	27	4.8045518751304
28	7588	28	5.8735093035856
28	8009	29	7.4025607400265
28	8430	30	4.3232883630873
28	9521	31	2.0239804415961
28	10357	32	1.8840631615766
28	10778	33	1.8357122602954
28	11199	34	1.7496349824479
28	11620	35	1.967871072643
28	12041	36	1.9029732984394
28	12462	37	1.8664969523448
28	12883	38	1.8867417670609
28	13304	39	1.5596900712014
28	13725	40	2.0601584972799
28	14146	41	0.973
28	14567	42	0.973
28	14988	43	0.973
28	15409	44	0.973
28	15830	45	0.973
28	16251	46	0.973
28	16652	47	0.973
28	17053	48	0.973
28	17454	49	0.973
28	17855	50	0.973
28	18256	51	0.973
28	18657	52	2.4180682255884
28	19058	53	3.3086083924977
28	19459	54	3.4088795977814
28	19860	55	4.7225144739403
28	20261	56	6.3581731037801
28	21050	57	7.0859232164212
28	21451	58	7.6005408847876
28	21852	59	9.4904714993856
28	22253	60	11.078222094843
28	23098	61	11.162170702184
28	23499	62	14.390942149113
28	23900	63	15.430662250725
28	24301	64	7.7521712885133
28	24682	65	0.973
28	25063	66	0.973
28	25444	67	0.973
28	25825	68	0.973
28	26507	69	0.973
28	26888	70	2.2241642212123
28	27269	71	5.786680325525
28	27650	72	6.7922809298509
28	28031	73	7.6317048753494
28	28412	74	2.3172682814347
28	28793	75	1.7978040211027
28	29174	76	2.0867717342567
28	29555	77	0.973
28	29936	78	0.973
28	30317	79	3.3769863061237
28	30698	80	1.6172237599065
28	31079	81	5.3028930429284
28	31460	82	7.4585386365427
27	741	8	1.9180132426368
27	921	9	2.2174096986861
27	1121	10	1.9376173650031
27	1341	11	2.0938487575576
27	1581	12	0.0055907714900911
27	1841	13	0.05496261721477
27	2121	14	0.014798117920289
27	2421	15	-0.08205897812033
27	2741	16	0.094349921769462
27	3081	17	0.029851414163131
27	3441	18	-0.020354272814002
27	3821	19	-0.10203615771374
27	4221	20	0.021293967852834
27	4641	21	0.061121414685623
27	5062	22	-3.0172124218555
27	5483	23	-4.4655751649562
27	5904	24	-1.540282651801
27	6325	25	0.41515947676264
27	6746	26	1.962646616702
27	7167	27	1.844267436848
27	7588	28	1.8893812828884
27	8009	29	2.0488036362454
27	8430	30	0.83605387195995
27	9521	31	0.051969479902182
27	10357	32	0.0044318757019948
27	10778	33	-0.011600672050845
27	11199	34	-0.039701497061179
27	11620	35	0.033406933851074
27	12041	36	0.011050314237364
27	12462	37	-0.0012710242788305
27	12883	38	0.0054221508721817
27	13304	39	-0.10310345527716
27	13725	40	0.06550724055618
27	14146	41	-3.6728810591606
27	14567	42	-4.5
27	14988	43	-4.0383615645204
27	15409	44	-0.00091210522227021
27	15830	45	0
27	16251	46	0
27	16652	47	0
27	17053	48	0
27	17454	49	0
27	17855	50	0
27	18256	51	0
27	18657	52	2.2308888504391
27	19058	53	1.9665267368565
27	19459	54	1.4704905819297
27	19860	55	1.7887605768605
27	20261	56	2.0546973863663
27	21050	57	1.9190784970811
27	21451	58	1.7727931502508
27	21852	59	1.9987044590642
27	22253	60	2.0788815815374
27	23098	61	1.8409715694539
27	23499	62	2.2089148139069
27	23900	63	2.1226102074934
27	24301	64	0.71622831458681
27	24682	65	-4.3882614494343
27	25063	66	-4.4989820037674
27	25444	67	-4.4990302782531
27	25825	68	-4.4860785180125
27	26507	69	-1.1419415366034
27	26888	70	0.59162634659093
27	27269	71	2.2133334641648
27	27650	72	2.1038050488429
27	28031	73	1.98926186722
27	28412	74	0.15311408592688
27	28793	75	-0.02281864264747
27	29174	76	0.072932745274155
27	29555	77	-0.47401234678025
27	29936	78	-4.4988871807093
27	30317	79	0.92059059039842
27	30698	80	0.029464697206858
27	31079	81	1.5427719043638
27	31460	82	1.9862866964983
24	581	7	3.9783934193249
24	741	8	5.8964066619617
24	921	9	8.1138163606478
24	1121	10	10.051433725651
24	1341	11	12.145282483208
24	1581	12	12.150873254699
24	1841	13	12.205835871913
24	2121	14	12.220633989834
24	2421	15	12.138575011713
24	2741	16	12.232924933483
24	3081	17	12.262776347646
24	3441	18	12.242422074832
24	3821	19	12.140385917118
24	4221	20	12.161679884971
24	4641	21	12.222801299657
24	5062	22	9.2055888778011
24	5483	23	4.740013712845
24	5904	24	3.199731061044
24	6325	25	3.6148905378066
24	6746	26	5.5775371545086
24	7167	27	7.4218045913566
24	7588	28	9.311185874245
24	8009	29	11.35998951049
24	8430	30	12.19604338245
24	9521	31	12.248012862353
24	10357	32	12.252444738055
24	10778	33	12.240844066004
24	11199	34	12.201142568943
24	11620	35	12.234549502794
24	12041	36	12.245599817031
24	12462	37	12.244328792752
24	12883	38	12.249750943624
24	13304	39	12.146647488347
24	13725	40	12.212154728903
24	14146	41	8.5392736697427
24	14567	42	4.0392736697427
24	14988	43	0.00091210522227021
24	15409	44	0
24	15830	45	0
24	16251	46	0
24	16652	47	0
24	17053	48	0
24	17454	49	0
24	17855	50	0
24	18256	51	0
24	18657	52	2.2308888504391
24	19058	53	4.1974155872956
24	19459	54	5.6679061692253
24	19860	55	7.4566667460858
24	20261	56	9.5113641324521
24	21050	57	11.430442629533
24	21451	58	13.203235779784
24	21852	59	15.201940238848
24	22253	60	17.280821820386
24	23098	61	19.121793389839
24	23499	62	21.330708203746
24	23900	63	23.45331841124
24	24301	64	24.169546725827
24	24682	65	19.781285276392
24	25063	66	15.282303272625
24	25444	67	10.783272994372
24	25825	68	6.2971944763591
24	26507	69	5.1552529397557
24	26888	70	5.7468792863466
24	27269	71	7.9602127505114
24	27650	72	10.064017799354
24	28031	73	12.053279666574
24	28412	74	12.206393752501
24	28793	75	12.183575109854
24	29174	76	12.256507855128
24	29555	77	11.782495508348
24	29936	78	7.2836083276384
24	30317	79	8.2041989180368
24	30698	80	8.2336636152437
24	31079	81	9.7764355196074
24	31460	82	11.762722216106
16	441	6	1978.8094788926
16	581	7	1975.7024086178
16	741	8	1970.6540683443
16	921	9	1963.5934472357
16	1121	10	1954.4241084733
16	1341	11	1943.2246328528
16	1581	12	1931.0189614225
16	1841	13	1918.8148016635
16	2121	14	1906.6143275865
16	2421	15	1894.4127392209
16	2741	16	1882.1907842
16	3081	17	1869.9929984158
16	3441	18	1857.7785048992
16	3821	19	1845.5997649636
16	4221	20	1833.4005254605
16	4641	21	1821.211691165
16	5062	22	1810.1892219006
16	5483	23	1803.4420041139
16	5904	24	1800.7494051564
16	6325	25	1803.1499518337
16	6746	26	1807.8099199537
16	7167	27	1814.4538089893
16	7588	28	1822.882003204
16	8009	29	1833.3330247792
16	8430	30	1845.3932901987
16	9521	31	1857.5829188969
16	10357	32	1869.7909901897
16	10778	33	1881.9859806072
16	11199	34	1894.18761007
16	11620	35	1906.3795163118
16	12041	36	1918.5849607012
16	12462	37	1930.7893264122
16	12883	38	1942.9831560733
16	13304	39	1955.1780229726
16	13725	40	1967.3813914178
16	14146	41	1977.8993796934
16	14567	42	1983.9632826636
16	14988	43	1985.5830637166
16	15409	44	1985.5830666374
16	15830	45	1985.5830666374
16	16251	46	1985.5830666374
16	16652	47	1985.5830666374
16	17053	48	1985.5830666374
16	17454	49	1985.5830666374
16	17855	50	1985.5830666374
16	18256	51	1985.5830666374
16	18657	52	1986.8526700546
16	19058	53	1989.8977223323
16	19459	54	1991.8263436536
16	19860	55	1991.987773209
16	20261	56	1992.1899569138
16	21050	57	1994.3559646952
16	21451	58	1995.7455161168
16	21852	59	1995.8873520953
16	22253	60	1996.1069182557
16	23098	61	1996.4208849548
16	23499	62	1990.3332604715
16	23900	63	1992.4408117908
16	24301	64	1994.4794349946
16	24682	65	1996.6698780103
16	25063	66	1998.5012506203
16	25444	67	1998.7476369379
16	25825	68	1998.9034833401
16	26507	69	1996.9139924934
16	26888	70	1991.7241329747
16	27269	71	1984.7700321841
16	27650	72	1975.6475671374
16	28031	73	1964.5140234334
16	28412	74	1952.3123971376
16	28793	75	1940.1091812842
16	29174	76	1927.8865082432
16	29555	77	1915.7344982657
16	29936	78	1906.4269936384
16	30317	79	1899.3558401174
16	30698	80	1894.3197559055
16	31079	81	1892.0013667748
16	31460	82	1882.6284135588
15	441	6	381.36669676011
15	581	7	381.32984577073
15	741	8	381.26997060945
15	921	9	381.18622906179
15	1121	10	381.07747735183
15	1341	11	380.94464747652
15	1581	12	380.79988375105
15	1841	13	380.65513795456
15	2121	14	380.5104358716
15	2421	15	380.36572057277
15	2741	16	380.22076371797
15	3081	17	380.07609351915
15	3441	18	379.93122516051
15	3821	19	379.78678085241
15	4221	20	379.64209341195
15	4641	21	379.49756234342
15	5062	22	379.36780875031
15	5483	23	379.29039305801
15	5904	24	377.73881031284
15	6325	25	376.08676803312
15	6746	26	376.13850105207
15	7167	27	376.21812967966
15	7588	28	376.31698304326
15	8009	29	376.44092840244
15	8430	30	376.58395881517
15	9521	31	376.72852342988
15	10357	32	376.87330676714
15	10778	33	377.01793496991
15	11199	34	377.16264190938
15	11620	35	377.30723353494
15	12041	36	377.45198571806
15	12462	37	377.59672510845
15	12883	38	377.74133954507
15	13304	39	377.88596628296
15	13725	40	378.03069384613
15	14146	41	378.15543340632
15	14567	42	378.22734911583
15	14988	43	378.24813328995
15	15409	44	378.2481333329
15	15830	45	378.2481333329
15	16251	46	378.2481333329
15	16652	47	378.2481333329
15	17053	48	378.2481333329
15	17454	49	378.2481333329
15	17855	50	378.2481333329
15	18256	51	378.2481333329
15	18657	52	378.21879652509
15	19058	53	377.22136686896
15	19459	54	372.64056313928
15	19860	55	366.07531587639
15	20261	56	357.4443634772
15	21050	57	347.40665442611
15	21451	58	335.29945036383
15	21852	59	320.98492700023
15	22253	60	304.64792917983
15	23098	61	286.38374636659
15	23499	62	267.1719381995
15	23900	63	244.87323937194
15	24301	64	220.84643982623
15	24682	65	199.54989752603
15	25063	66	182.65334276605
15	25444	67	169.84946712682
15	25825	68	161.53493295405
15	26507	69	157.09099048182
15	26888	70	156.39622979605
15	27269	71	156.34251298034
15	27650	72	156.27652574355
15	28031	73	156.19599139445
15	28412	74	156.10773108329
15	28793	75	156.01945927408
15	29174	76	155.93104672155
15	29555	77	155.8431453094
15	29936	78	155.77581959112
15	30317	79	154.3460745121
15	30698	80	148.09511750116
15	31079	81	139.55031905332
15	31460	82	135.46075317531
2	141	3	369.01218007613
2	221	4	369.04986120841
2	321	5	369.11001224493
2	441	6	369.19221144478
2	581	7	369.29666250911
2	741	8	369.42437083017
2	921	9	369.5760842544
2	1121	10	369.74853124685
2	1341	11	369.92207370653
2	1581	12	370.09575584428
2	1841	13	370.26962492008
2	2121	14	370.44053968456
2	2421	15	370.61018831598
2	2741	16	370.7816212813
2	3081	17	370.95580085163
2	3441	18	371.12996865368
2	3821	19	371.30479715115
2	4221	20	371.47746413328
2	4641	21	371.65005683547
2	5062	22	371.82247040176
2	5483	23	371.99415454345
2	5904	24	372.16591901024
2	6325	25	372.33755675384
2	6746	26	372.50942819803
2	7167	27	372.68122601982
2	7588	28	372.85213817389
2	8009	29	373.02369620639
2	8430	30	373.17386955427
2	9521	31	373.26900885199
2	10357	32	376.85151824608
2	10778	33	384.38493948834
2	11199	34	393.6965978791
2	11620	35	405.03054693391
2	12041	36	418.49391438503
2	12462	37	432.97894398764
2	12883	38	447.48418095295
2	13304	39	462.01388528795
2	13725	40	476.5288465015
2	14146	41	488.770976455
2	14567	42	496.53848418434
2	14988	43	499.8403905086
2	15409	44	499.96899991313
2	15830	45	499.96899991313
2	16251	46	499.96899991313
2	16652	47	499.96899991313
2	17053	48	499.96899991313
2	17454	49	499.96899991313
2	17855	50	499.96899991313
2	18256	51	499.96899991313
2	18657	52	499.96899991313
2	19058	53	499.96899991313
2	19459	54	499.96899991313
2	19860	55	499.96899991313
2	20261	56	499.96899991313
2	21050	57	499.96899991313
2	21451	58	499.96899991313
2	21852	59	499.96899991313
2	22253	60	499.96899991313
2	23098	61	499.96899991313
2	23499	62	499.96899991313
2	23900	63	499.96899991313
2	24301	64	499.96899991313
2	24682	65	499.96899991313
2	25063	66	499.96899991313
2	25444	67	499.96899991313
2	25825	68	499.96899991313
2	26507	69	499.96899991313
2	26888	70	499.96899991313
2	27269	71	499.96899991313
2	27650	72	499.96899991313
2	28031	73	499.96899991313
2	28412	74	499.96899991313
2	28793	75	499.96899991313
2	29174	76	499.96899991313
2	29555	77	499.96899991313
2	29936	78	499.96899991313
2	30317	79	499.96899991313
2	30698	80	499.96899991313
2	31079	81	499.96899991313
2	31460	82	499.96899991313
2	31841	83	499.96899991313
2	32202	84	499.96899991313
2	32563	85	499.96899991313
2	32924	86	499.96899991313
2	33285	87	499.96899991313
2	33646	88	499.96899991313
2	34666	89	499.96899991313
2	35088	90	499.96899991313
3	141	3	1207.0042607979
3	221	4	1210.2274928908
3	321	5	1215.372793459
3	441	6	1222.4040869197
3	581	7	1231.3387978033
3	741	8	1242.2629270439
3	921	9	1255.2278324343
3	1121	10	1269.6214080702
3	1341	11	1284.1064187049
3	1581	12	1298.6030878025
3	1841	13	1313.1153599959
3	2121	14	1327.6245976495
3	2421	15	1342.1273806534
3	2741	16	1356.618890604
3	3081	17	1371.1106308553
3	3441	18	1385.6033888514
3	3821	19	1400.1036918544
3	4221	20	1414.5930435087
3	4641	21	1429.0974686736
3	5062	22	1443.5868395322
3	5483	23	1458.0803795437
3	5904	24	1472.5881488226
3	6325	25	1487.0852146612
3	6746	26	1501.6020195894
3	7167	27	1516.1126061372
3	7588	28	1530.61563833
3	8009	29	1545.1082123501
3	8430	30	1557.7321594055
3	9521	31	1565.9227789754
3	10357	32	1572.1312861505
3	10778	33	1574.2329953253
3	11199	34	1574.1510938649
3	11620	35	1574.0577901249
3	12041	36	1573.9469565107
3	12462	37	1573.8277123329
3	12883	38	1573.7056299579
3	13304	39	1573.5844973223
3	13725	40	1573.4634875986
3	14146	41	1573.3614262331
3	14567	42	1573.2976568129
3	14988	43	1573.2701766621
3	15409	44	1573.2690180188
3	15830	45	1573.2690180188
3	16251	46	1573.2690180188
3	16652	47	1573.2690180188
3	17053	48	1573.2690180188
3	17454	49	1573.2690180188
3	17855	50	1573.2690180188
3	18256	51	1573.2690180188
3	18657	52	1573.2690180188
3	19058	53	1573.2690180188
3	19459	54	1573.2690180188
3	19860	55	1573.2690180188
3	20261	56	1573.2690180188
3	21050	57	1573.2690180188
3	21451	58	1573.2690180188
3	21852	59	1573.2690180188
3	22253	60	1573.2690180188
3	23098	61	1573.2690180188
3	23499	62	1573.2690180188
3	23900	63	1573.2690180188
3	24301	64	1573.2690180188
3	24682	65	1573.2690180188
3	25063	66	1573.2690180188
3	25444	67	1573.2690180188
3	25825	68	1573.2690180188
3	26507	69	1573.2690180188
3	26888	70	1573.2690180188
3	27269	71	1573.2690180188
3	27650	72	1573.2690180188
3	28031	73	1573.2690180188
3	28412	74	1573.2690180188
3	28793	75	1573.2690180188
3	29174	76	1573.2690180188
3	29555	77	1573.2690180188
3	29936	78	1573.2690180188
3	30317	79	1573.2690180188
3	30698	80	1573.2690180188
3	31079	81	1573.2690180188
3	31460	82	1573.2690180188
3	31841	83	1573.2690180188
3	32202	84	1573.2690180188
3	32563	85	1573.2690180188
3	32924	86	1573.2690180188
3	33285	87	1573.2690180188
3	33646	88	1573.2690180188
3	34666	89	1573.2690180188
3	35088	90	1573.2690180188
5	221	4	1246.4962974588
5	321	5	1246.387550308
5	441	6	1246.3435451239
5	581	7	1246.4620142116
5	741	8	1246.6079122369
5	921	9	1246.7884455081
5	1121	10	1247.0017266977
5	1341	11	1247.2252252094
5	1581	12	1247.4485213236
5	1841	13	1247.6719922436
5	2121	14	1247.8952888178
5	2421	15	1248.1187105979
5	2741	16	1248.3420410461
5	3081	17	1248.5654687579
5	3441	18	1248.7889528377
5	3821	19	1249.0126010272
5	4221	20	1249.2361259012
5	4641	21	1249.4564314351
5	5062	22	1249.9050993093
5	5483	23	1250.369792699
5	5904	24	1250.8345328978
5	6325	25	1251.2953401965
5	6746	26	1251.7563312323
5	7167	27	1252.2180419702
5	7588	28	1252.6825834091
5	8009	29	1253.1722595494
5	8430	30	1253.6720443071
5	9521	31	1254.1728213379
5	10357	32	1254.6731721554
5	10778	33	1255.1727452425
5	11199	34	1255.6296449047
5	11620	35	1255.9345075075
5	12041	36	1256.8840988553
5	12462	37	1262.8243680629
5	12883	38	1270.8355615977
5	13304	39	1280.6170901112
5	13725	40	1292.4651828486
5	14146	41	1306.1930616464
5	14567	42	1320.4242790328
5	14988	43	1334.6752082263
5	15409	44	1348.891865375
5	15830	45	1363.1527239782
5	16251	46	1377.3750765994
5	16652	47	1391.6294980806
5	17053	48	1405.8709084747
5	17454	49	1420.1354257467
5	17855	50	1434.3937009586
5	18256	51	1448.6041051783
5	18657	52	1462.8604012913
5	19058	53	1477.0895131282
5	19459	54	1491.3359147828
5	19860	55	1505.5713201456
5	20261	56	1519.8074476951
5	21050	57	1534.0544399351
5	21451	58	1548.29366007
5	21852	59	1562.5427869704
5	22253	60	1576.7750615472
5	23098	61	1591.0143371098
5	23499	62	1605.2559441724
5	23900	63	1619.486986972
5	24301	64	1633.7109834574
5	24682	65	1647.9434426071
5	25063	66	1662.1695901657
5	25444	67	1676.4040677254
5	25825	68	1690.645861943
5	26507	69	1704.8903980517
5	26888	70	1719.1306155195
5	27269	71	1733.3621711666
5	27650	72	1747.5979161921
5	28031	73	1761.8250242563
5	28412	74	1776.0737668308
5	28793	75	1790.3481157899
5	29174	76	1804.6031478374
5	29555	77	1818.8484766028
5	29936	78	1833.0946041259
5	30317	79	1847.3211874803
5	30698	80	1861.4548692592
5	31079	81	1875.599345736
5	31460	82	1889.732050205
5	31841	83	1903.9610564837
5	32202	84	1918.2204318836
5	32563	85	1932.4867300351
5	32924	86	1946.7191594937
5	33285	87	1960.9520148283
5	33646	88	1975.1825041281
5	34666	89	1989.424149235
5	35088	90	2003.6609967323
6	221	4	1173.6890692934
6	321	5	1176.9304359797
6	441	6	1182.1469014152
6	581	7	1189.277117815
6	741	8	1198.4713952224
6	921	9	1209.8483345196
6	1121	10	1223.2970103491
6	1341	11	1237.5342411752
6	1581	12	1251.7585789379
6	1841	13	1265.9940521252
6	2121	14	1280.2184191847
6	2421	15	1294.4507620782
6	2741	16	1308.6772869716
6	3081	17	1322.9100077229
6	3441	18	1337.1463192144
6	3821	19	1351.3930847638
6	4221	20	1365.6319949054
6	4641	21	1379.864474717
6	5062	22	1394.0887920817
6	5483	23	1408.3013955682
6	5904	24	1422.5362671932
6	6325	25	1436.7435991967
6	6746	26	1450.956596074
6	7167	27	1465.1917823717
6	7588	28	1479.44745921
6	8009	29	1493.7091135728
6	8430	30	1507.9414183118
6	9521	31	1522.2019798781
6	10357	32	1536.4504042255
6	10778	33	1550.6766812468
6	11199	34	1563.6877527662
6	11620	35	1572.3692849653
6	12041	36	1579.3032800899
6	12462	37	1583.2431420935
6	12883	38	1583.4233111844
6	13304	39	1583.2937902551
6	13725	40	1583.136905165
6	14146	41	1582.9531464146
6	14567	42	1582.7532739023
6	14988	43	1582.5553443302
6	15409	44	1582.3578907587
6	15830	45	1582.1683321142
6	16251	46	1581.9764697102
6	16652	47	1581.7834249989
6	17053	48	1581.5895087126
6	17454	49	1581.396299713
6	17855	50	1581.2059193338
6	18256	51	1581.0152494079
6	18657	52	1580.8169150034
6	19058	53	1580.6217695773
6	19459	54	1580.4269099802
6	19860	55	1580.2322007883
6	20261	56	1580.0374817185
6	21050	57	1579.8426140434
6	21451	58	1579.6478526738
6	21852	59	1579.4529558013
6	22253	60	1579.2582894317
6	23098	61	1579.0675745117
6	23499	62	1578.8720237531
6	23900	63	1578.6776138389
6	24301	64	1578.4833001843
6	24682	65	1578.2888709215
6	25063	66	1578.0945278811
6	25444	67	1577.9000710448
6	25825	68	1577.7055142558
6	26507	69	1577.51092001
6	26888	70	1577.3163847609
6	27269	71	1577.1279256486
6	27650	72	1576.9345478252
6	28031	73	1576.7402287489
6	28412	74	1576.5456141806
6	28793	75	1576.3506498708
6	29174	76	1576.1553012493
6	29555	77	1575.9589344825
6	29936	78	1575.7655074274
6	30317	79	1575.5723457336
6	30698	80	1575.3756618614
6	31079	81	1575.1897250755
6	31460	82	1574.9942287234
6	31841	83	1574.7966998978
6	32202	84	1574.5991321395
6	32563	85	1574.4068700318
6	32924	86	1574.2130927765
6	33285	87	1574.0189691782
6	33646	88	1573.8240659155
6	34666	89	1573.6284630738
6	35088	90	1573.4329261251
9	221	4	4.1428915371655
9	321	5	5.9478531782331
9	441	6	7.8491469426502
9	581	7	9.885760044167
9	741	8	11.814859634864
9	921	9	13.855067155604
9	1121	10	14.503334607185
9	1341	11	14.507502165359
9	1581	12	14.557432825662
9	1841	13	14.522982592642
9	2121	14	14.555736262832
9	2421	15	14.502017466425
9	2741	16	14.490246323456
9	3081	17	14.43792085535
9	3441	18	14.478270551573
9	3821	19	14.483572212231
9	4221	20	14.526973104269
9	4641	21	14.520585214665
9	5062	22	14.544858397587
9	5483	23	14.508791521503
9	5904	24	14.474584509196
9	6325	25	14.483879963711
9	6746	26	14.544226177318
9	7167	27	14.539673528819
9	7588	28	14.524883949467
9	8009	29	14.530611679153
9	8430	30	10.659452661154
9	9521	31	6.1717864787124
9	10357	32	7.962613745009
9	10778	33	8.3532556753079
9	11199	34	10.257175209071
9	11620	35	12.266295355254
9	12041	36	14.441144230327
9	12462	37	14.439960191866
9	12883	38	14.519012756258
9	13304	39	14.560272838971
9	13725	40	14.513391046875
9	14146	41	10.24250772934
9	14567	42	5.74250772934
9	14988	43	1.3093339955115
9	15409	44	0
9	15830	45	0
9	16251	46	0
9	16652	47	0
9	17053	48	0
9	17454	49	0
9	17855	50	0
9	18256	51	0
9	18657	52	0
9	19058	53	0
9	19459	54	0
9	19860	55	0
9	20261	56	0
9	21050	57	0
9	21451	58	0
9	21852	59	0
9	22253	60	0
9	23098	61	0
9	23499	62	0
9	23900	63	0
9	24301	64	0
9	24682	65	0
9	25063	66	0
9	25444	67	0
9	25825	68	0
9	26507	69	0
9	26888	70	0
9	27269	71	0
9	27650	72	0
9	28031	73	0
9	28412	74	0
9	28793	75	0
9	29174	76	0
9	29555	77	0
9	29936	78	0
9	30317	79	0
9	30698	80	0
9	31079	81	0
9	31460	82	0
9	31841	83	0
9	32202	84	0
9	32563	85	0
9	32924	86	0
9	33285	87	0
9	33646	88	0
9	34666	89	0
9	35088	90	0
12	321	5	1.8049616410676
12	441	6	1.9012937644171
12	581	7	2.0366131015168
12	741	8	1.9290995906969
12	921	9	2.0402075207396
12	1121	10	0.6482674515819
12	1341	11	0.0041675581736484
12	1581	12	0.049930660303216
12	1841	13	-0.034450233019887
12	2121	14	0.032753670189996
12	2421	15	-0.053718796407338
12	2741	16	-0.011771142969375
12	3081	17	-0.052325468105263
12	3441	18	0.040349696222693
12	3821	19	0.0053016606578602
12	4221	20	0.043400892037898
12	4641	21	-0.0063878896040848
12	5062	22	0.024273182922043
12	5483	23	-0.036066876084078
12	5904	24	-0.034207012306434
12	6325	25	0.0092954545142145
12	6746	26	0.060346213607117
12	7167	27	-0.0045526484982119
12	7588	28	-0.014789579352364
12	8009	29	0.0057277296856046
12	8430	30	-3.8711590179988
12	9521	31	-4.4876661824414
12	10357	32	1.7908272662966
12	10778	33	0.39064193029888
12	11199	34	1.9039195337635
12	11620	35	2.0091201461828
12	12041	36	2.1748488750728
12	12462	37	-0.001184038461032
12	12883	38	0.079052564392331
12	13304	39	0.041260082712398
12	13725	40	-0.046881792095956
12	14146	41	-4.2708833175348
12	14567	42	-4.5
12	14988	43	-4.4331737338285
12	15409	44	-1.3093339955115
12	15830	45	0
12	16251	46	0
12	16652	47	0
12	17053	48	0
12	17454	49	0
12	17855	50	0
12	18256	51	0
12	18657	52	0
12	19058	53	0
12	19459	54	0
12	19860	55	0
12	20261	56	0
12	21050	57	0
12	21451	58	0
12	21852	59	0
12	22253	60	0
12	23098	61	0
12	23499	62	0
12	23900	63	0
12	24301	64	0
12	24682	65	0
12	25063	66	0
12	25444	67	0
12	25825	68	0
12	26507	69	0
12	26888	70	0
12	27269	71	0
12	27650	72	0
12	28031	73	0
12	28412	74	0
12	28793	75	0
12	29174	76	0
12	29555	77	0
12	29936	78	0
12	30317	79	0
12	30698	80	0
12	31079	81	0
12	31460	82	0
12	31841	83	0
12	32202	84	0
12	32563	85	0
12	32924	86	0
12	33285	87	0
12	33646	88	0
12	34666	89	0
12	35088	90	0
13	321	5	4.003653406223
13	441	6	5.1298870566123
13	581	7	6.5283038577894
13	741	8	7.3251862717174
13	921	9	8.8364628720991
13	1121	10	4.3573553534207
13	1341	11	2.1064788967904
13	1581	12	2.2724126880103
13	1841	13	1.972981363801
13	2121	14	2.2119550814255
13	2421	15	1.9035770030377
13	2741	16	2.0489635114435
13	3081	17	1.9024436001353
13	3441	18	2.2295868101462
13	3821	19	2.1078656200203
13	4221	20	2.2459308848154
13	4641	21	2.0709485855072
13	5062	22	2.1809794869588
13	5483	23	1.9659331254678
13	5904	24	1.9690773227052
13	6325	25	2.1218395480197
13	6746	26	2.3073499158391
13	7167	27	2.0793876817023
13	7588	28	2.0419905132825
13	8009	29	2.1144305265981
13	8430	30	0.973
13	9521	31	0.973
13	10357	32	4.9773339163618
13	10778	33	2.3532201815898
13	11199	34	6.4109466806393
13	11620	35	7.8115367269156
13	12041	36	9.6540146696432
13	12462	37	2.0806078203376
13	12883	38	2.3697464375205
13	13304	39	2.2423254127656
13	13725	40	1.9285558158082
13	14146	41	0.973
13	14567	42	0.973
13	14988	43	0.973
13	15409	44	0.973
13	15830	45	0.973
13	16251	46	0.973
13	16652	47	0.973
13	17053	48	0.973
13	17454	49	0.973
13	17855	50	0.973
13	18256	51	0.973
13	18657	52	0.973
13	19058	53	0.973
13	19459	54	0.973
13	19860	55	0.973
13	20261	56	0.973
13	21050	57	0.973
13	21451	58	0.973
13	21852	59	0.973
13	22253	60	0.973
13	23098	61	0.973
13	23499	62	0.973
13	23900	63	0.973
13	24301	64	0.973
13	24682	65	0.973
13	25063	66	0.973
13	25444	67	0.973
13	25825	68	0.973
13	26507	69	0.973
13	26888	70	0.973
13	27269	71	0.973
13	27650	72	0.973
13	28031	73	0.973
13	28412	74	0.973
13	28793	75	0.973
13	29174	76	0.973
13	29555	77	0.973
13	29936	78	0.973
13	30317	79	0.973
13	30698	80	0.973
13	31079	81	0.973
13	31460	82	0.973
13	31841	83	0.973
13	32202	84	0.973
13	32563	85	0.973
13	32924	86	0.973
13	33285	87	0.973
13	33646	88	0.973
13	34666	89	0.973
13	35088	90	0.973
14	321	5	4.2021235975773
14	441	6	6.1258346802659
14	581	7	8.0539288578659
14	741	8	10.254206708503
14	921	9	12.317758484568
14	1121	10	14.240412943369
14	1341	11	14.214995911914
14	1581	12	14.232364979988
14	1841	13	14.18210722766
14	2121	14	14.253277960311
14	2421	15	14.179918275653
14	2741	16	14.268000696363
14	3081	17	14.248717577253
14	3441	18	14.197931519578
14	3821	19	14.271073172417
14	4221	20	14.241474123198
14	4641	21	14.291432808536
14	5062	22	14.276273541237
14	5483	23	14.244104073763
14	5904	24	14.278038884912
14	6325	25	14.185305529477
14	6746	26	14.189565112643
14	7167	27	14.270026618592
14	7588	28	14.306077650628
14	8009	29	14.296262848758
14	8430	30	14.24927566436
14	9521	31	14.21576664114
14	10357	32	14.242051046827
14	10778	33	14.234233363265
14	11199	34	11.158418131949
14	11620	35	6.6938048184239
14	12041	36	7.3486014060768
14	12462	37	7.3917933481744
14	12883	38	8.7853871522237
14	13304	39	10.734640429807
14	13725	40	12.752962159831
14	14146	41	14.271835906628
14	14567	42	14.224266008396
14	14988	43	14.278790562047
14	15409	44	14.192928786677
14	15830	45	14.221580402091
14	16251	46	14.263709307237
14	16652	47	14.229535574881
14	17053	48	14.241133302644
14	17454	49	14.298364355591
14	17855	50	14.273509442605
14	18256	51	14.189739895629
14	18657	52	14.269235638481
14	19058	53	14.239420811137
14	19459	54	14.294994423863
14	19860	55	14.196141398198
14	20261	56	14.232911670018
14	21050	57	14.302569821054
14	21451	58	14.28812025071
14	21852	59	14.262215616899
14	22253	60	14.186916388481
14	23098	61	14.269015634431
14	23499	62	14.297818221735
14	23900	63	14.291038259103
14	24301	64	14.187845881757
14	24682	65	14.178597341255
14	25063	66	14.209354035941
14	25444	67	14.259772749078
14	25825	68	14.212253753968
14	26507	69	14.298278955776
14	26888	70	14.188320243595
14	27269	71	14.253939181486
14	27650	72	14.261398318928
14	28031	73	14.206835288192
14	28412	74	14.260126358763
14	28793	75	14.297508444782
14	29174	76	14.23612511963
14	29555	77	14.293917806364
14	29936	78	14.301381454825
14	30317	79	14.257654858004
14	30698	80	14.259784945139
14	31079	81	14.238072241555
14	31460	82	14.226650583864
14	31841	83	14.189936089915
14	32202	84	14.2795457088
14	32563	85	14.282316084861
14	32924	86	14.259464142105
14	33285	87	14.222060954942
14	33646	88	14.270401496257
14	34666	89	14.240914644944
14	35088	90	14.224931670882
17	441	6	1.9237110826885
17	581	7	1.9280941776
17	741	8	2.2002778506372
17	921	9	2.0635517760646
17	1121	10	1.9226544588011
17	1341	11	-0.025417031454854
17	1581	12	0.017369068074039
17	1841	13	-0.050257752328179
17	2121	14	0.071170732651371
17	2421	15	-0.073359684657772
17	2741	16	0.088082420709544
17	3081	17	-0.01928311910946
17	3441	18	-0.050786057675722
17	3821	19	0.073141652839258
17	4221	20	-0.029599049219396
17	4641	21	0.049958685338497
17	5062	22	-0.015159267298877
17	5483	23	-0.032169467473869
17	5904	24	0.033934811148793
17	6325	25	-0.092733355434611
17	6746	26	0.0042595831654033
17	7167	27	0.080461505949497
17	7588	28	0.036051032035612
17	8009	29	-0.0098148018703803
17	8430	30	-0.046987184397876
17	9521	31	-0.033509023219812
17	10357	32	0.026284405686892
17	10778	33	-0.0078176835621715
17	11199	34	-3.0758152313155
17	11620	35	-4.4646133135253
17	12041	36	0.65479658765295
17	12462	37	0.043191942097619
17	12883	38	1.3935938040493
17	13304	39	1.949253277583
17	13725	40	2.0183217300242
17	14146	41	1.5188737467966
17	14567	42	-0.047569898231886
17	14988	43	0.054524553650989
17	15409	44	-0.085861775369848
17	15830	45	0.028651615413837
17	16251	46	0.042128905146383
17	16652	47	-0.034173732355704
17	17053	48	0.011597727763002
17	17454	49	0.0572310529463
17	17855	50	-0.024854912986049
17	18256	51	-0.083769546975381
17	18657	52	0.079495742851869
17	19058	53	-0.029814827344381
17	19459	54	0.055573612726294
17	19860	55	-0.098853025664575
17	20261	56	0.036770271819551
17	21050	57	0.069658151036128
17	21451	58	-0.014449570344295
17	21852	59	-0.025904633810278
17	22253	60	-0.075299228418153
17	23098	61	0.082099245949648
17	23499	62	0.028802587303799
17	23900	63	-0.0067799626314073
17	24301	64	-0.10319237734657
17	24682	65	-0.0092485405015754
17	25063	66	0.030756694686133
17	25444	67	0.050418713137041
17	25825	68	-0.047518995110877
17	26507	69	0.086025201808662
17	26888	70	-0.10995871218154
17	27269	71	0.065618937890976
17	27650	72	0.007459137442055
17	28031	73	-0.054563030735588
17	28412	74	0.053291070570703
17	28793	75	0.037382086019498
17	29174	76	-0.061383325152566
17	29555	77	0.057792686733883
17	29936	78	0.0074636484612718
17	30317	79	-0.043726596820635
17	30698	80	0.0021300871344287
17	31079	81	-0.021712703583763
17	31460	82	-0.011421657691244
17	31841	83	-0.036714493948965
17	32202	84	0.089609618885442
17	32563	85	0.0027703760610898
17	32924	86	-0.022851942756679
17	33285	87	-0.037403187162708
17	33646	88	0.048340541315264
17	34666	89	-0.029486851312685
17	35088	90	-0.01598297406221
18	441	6	4.2667710509387
18	581	7	5.2892072339454
18	741	8	7.1417344561247
18	921	9	8.0026772397983
18	1121	10	8.6621634607972
18	1341	11	1.9740036030884
18	1581	12	2.1224652677406
18	1841	13	1.8858782090533
18	2121	14	2.3095482346543
18	2421	15	1.8067295046106
18	2741	16	2.3694930917252
18	3081	17	1.9983801606973
18	3441	18	1.8855252518872
18	3821	19	2.3184937005978
18	4221	20	1.962250759489
18	4641	21	2.2411379279158
18	5062	22	2.0153233138061
18	5483	23	1.9536829148591
18	5904	24	2.1844348359266
18	6325	25	1.7409624867331
18	6746	26	2.0729957008456
18	7167	27	2.3435392353709
18	7588	28	2.1949002065903
18	8009	29	2.0357590401583
18	8430	30	1.9032980417197
18	9521	31	1.9463560632291
18	10357	32	2.1541176035428
18	10778	33	2.0362662202253
18	11199	34	0.973
18	11620	35	0.973
18	12041	36	2.6608092802917
18	12462	37	1.5808329286668
18	12883	38	4.547073529213
18	13304	39	6.7849222989253
18	13725	40	8.1200464198122
18	14146	41	7.2912005343272
18	14567	42	1.8989723787789
18	14988	43	2.2553729001997
18	15409	44	1.765089422353
18	15830	45	2.159964735025
18	16251	46	2.2109852492959
18	16652	47	1.9454014740929
18	17053	48	2.1036095918977
18	17454	49	2.267008197804
18	17855	50	1.9816917709633
18	18256	51	1.7719784439214
18	18657	52	2.340119955454
18	19058	53	1.9613104714295
18	19459	54	2.2608982241273
18	19860	55	1.720910733732
18	20261	56	2.1890733033487
18	21050	57	2.3103426250247
18	21451	58	2.018965017463
18	21852	59	1.976969346705
18	22253	60	1.8007021327017
18	23098	61	2.3490457250633
18	23499	62	2.1689853043854
18	23900	63	2.0456759525566
18	24301	64	1.7054077220937
18	24682	65	2.0256860053323
18	25063	66	2.1658145383958
18	25444	67	2.2390222799237
18	25825	68	1.898031976937
18	26507	69	2.3662193938376
18	26888	70	1.6823085669179
18	27269	71	2.2905571813846
18	27650	72	2.0915601336288
18	28031	73	1.8734117394731
18	28412	74	2.2489349656603
18	28793	75	2.1985130353481
18	29174	76	1.8526814642589
18	29555	77	2.268415244302
18	29936	78	2.0958363624155
18	30317	79	1.9152828342368
18	30698	80	2.0730746170188
18	31079	81	1.9889807622896
18	31460	82	2.023132487146
18	31841	83	1.9329125705145
18	32202	84	2.3762026312992
18	32563	85	2.0776486974362
18	32924	86	1.9871893822478
18	33285	87	1.9336142336048
18	33646	88	2.2331163914499
18	34666	89	1.9625813848885
18	35088	90	2.0073207493418
20	581	7	782.99053919508
20	741	8	782.94896945426
20	921	9	782.88318199402
20	1121	10	782.79473599563
20	1341	11	782.68098745245
20	1581	12	782.54264213234
20	1841	13	782.37916619521
20	2121	14	782.19493079592
20	2421	15	781.99188199203
20	2741	16	781.78666231067
20	3081	17	781.58118521486
20	3441	18	781.3758135877
20	3821	19	781.17046451703
20	4221	20	780.97485693554
20	4641	21	780.8315209657
20	5062	22	780.73738779969
20	5483	23	777.4313277355
20	5904	24	769.11851804629
20	6325	25	759.03377565065
20	6746	26	746.93050707109
20	7167	27	732.88766513533
20	7588	28	717.13016904085
20	8009	29	701.12349807678
20	8430	30	685.13859214758
20	9521	31	669.47333406723
20	10357	32	657.36232738077
20	10778	33	649.44339513099
20	11199	34	640.88240656341
20	11620	35	640.64208289022
20	12041	36	636.41371856575
20	12462	37	628.19782229832
20	12883	38	617.92344794626
20	13304	39	605.57696169121
20	13725	40	591.39080403533
20	14146	41	575.56921698601
20	14567	42	559.56526768049
20	14988	43	543.7869849907
20	15409	44	531.31259037856
20	15830	45	523.291037317
20	16251	46	519.76882018227
20	16652	47	519.58100015593
20	17053	48	519.58100015593
20	17454	49	519.58100015593
20	17855	50	519.58100015593
20	18256	51	519.58100015593
20	18657	52	519.58100015593
20	19058	53	519.58100015593
20	19459	54	519.58100015593
20	19860	55	519.58100015593
20	20261	56	519.58100015593
20	21050	57	519.58100015593
20	21451	58	519.58100015593
20	21852	59	519.58100015593
20	22253	60	519.58100015593
20	23098	61	519.58100015593
20	23499	62	519.58100015593
20	23900	63	519.58100015593
20	24301	64	519.58100015593
20	24682	65	519.58100015593
20	25063	66	519.58100015593
20	25444	67	519.58100015593
20	25825	68	519.58100015593
20	26507	69	519.58100015593
20	26888	70	519.58100015593
20	27269	71	519.58100015593
20	27650	72	519.58100015593
20	28031	73	519.58100015593
20	28412	74	519.58100015593
20	28793	75	519.58100015593
20	29174	76	519.58100015593
20	29555	77	519.58100015593
20	29936	78	519.58100015593
20	30317	79	519.58100015593
20	30698	80	519.58100015593
20	31079	81	519.58100015593
20	31460	82	519.58100015593
20	31841	83	519.58100015593
20	32202	84	519.58100015593
20	32563	85	519.58100015593
20	32924	86	519.58100015593
20	33285	87	519.58100015593
20	33646	88	519.58100015593
20	34666	89	519.58100015593
21	581	7	1772.4696910051
21	741	8	1769.2312448207
21	921	9	1764.1061431147
21	1121	10	1757.2158522361
21	1341	11	1748.3543936758
21	1581	12	1737.576749524
21	1841	13	1724.8413315392
21	2121	14	1710.4886698652
21	2421	15	1694.6703700343
21	2741	16	1678.6829503162
21	3081	17	1662.6754770002
21	3441	18	1646.676220107
21	3821	19	1630.6787204531
21	4221	20	1615.4401210917
21	4641	21	1604.2736857121
21	5062	22	1596.8936361756
21	5483	23	1589.3826395987
21	5904	24	1587.0183068851
21	6325	25	1587.1576003268
21	6746	26	1587.3200603078
21	7167	27	1587.5085548304
21	7588	28	1587.7203700026
21	8009	29	1587.9398126188
21	8430	30	1588.156694955
21	9521	31	1588.3692403264
21	10357	32	1588.5350472278
21	10778	33	1587.6499414687
21	11199	34	1580.9463217912
21	11620	35	1573.1822954266
21	12041	36	1568.9306225453
21	12462	37	1568.9982061236
21	12883	38	1569.08415282
21	13304	39	1569.1875705528
21	13725	40	1569.3063979043
21	14146	41	1569.4333568198
21	14567	42	1569.56587679
21	14988	43	1569.7004390084
21	15409	44	1569.8068246174
21	15830	45	1569.8733448732
21	16251	46	1569.9008552294
21	16652	47	1569.9022999988
21	17053	48	1569.9022999988
21	17454	49	1569.9022999988
21	17855	50	1569.9022999988
21	18256	51	1569.9022999988
21	18657	52	1569.9022999988
21	19058	53	1569.9022999988
21	19459	54	1569.9022999988
21	19860	55	1569.9022999988
21	20261	56	1569.9022999988
21	21050	57	1569.9022999988
21	21451	58	1569.9022999988
21	21852	59	1569.9022999988
21	22253	60	1569.9022999988
21	23098	61	1569.9022999988
21	23499	62	1569.9022999988
21	23900	63	1569.9022999988
21	24301	64	1569.9022999988
21	24682	65	1569.9022999988
21	25063	66	1569.9022999988
21	25444	67	1569.9022999988
21	25825	68	1569.9022999988
21	26507	69	1569.9022999988
21	26888	70	1569.9022999988
21	27269	71	1569.9022999988
21	27650	72	1569.9022999988
21	28031	73	1569.9022999988
21	28412	74	1569.9022999988
21	28793	75	1569.9022999988
21	29174	76	1569.9022999988
21	29555	77	1569.9022999988
21	29936	78	1569.9022999988
21	30317	79	1569.9022999988
21	30698	80	1569.9022999988
21	31079	81	1569.9022999988
21	31460	82	1569.9022999988
21	31841	83	1569.9022999988
21	32202	84	1569.9022999988
21	32563	85	1569.9022999988
21	32924	86	1569.9022999988
21	33285	87	1569.9022999988
21	33646	88	1569.9022999988
21	34666	89	1569.9022999988
25	741	8	1358.7662242972
25	921	9	1358.7947627353
25	1121	10	1358.8412171135
25	1341	11	1358.9057636618
25	1581	12	1358.9878663905
25	1841	13	1359.0885980807
25	2121	14	1359.2047930363
25	2421	15	1359.3247553927
25	2741	16	1359.4446756335
25	3081	17	1359.5646140873
25	3441	18	1359.6844812008
25	3821	19	1359.804235679
25	4221	20	1359.9237115144
25	4641	21	1360.0183413045
25	5062	22	1360.0693269128
25	5483	23	1362.3992051736
25	5904	24	1363.2538153507
25	6325	25	1363.2093256142
25	6746	26	1363.1440513204
25	7167	27	1363.0599661824
25	7588	28	1362.9589755564
25	8009	29	1362.8422224053
25	8430	30	1362.7223527464
25	9521	31	1362.6023605354
25	10357	32	1362.4825097779
25	10778	33	1362.3625900054
25	11199	34	1362.2429128319
25	11620	35	1362.1230390571
25	12041	36	1362.003182386
25	12462	37	1361.8863658642
25	12883	38	1361.7684753476
25	13304	39	1361.6535283987
25	13725	40	1361.5742557724
25	14146	41	1361.1605332977
25	14567	42	1356.5020946168
25	14988	43	1349.070808252
25	15409	44	1339.7904473051
25	15830	45	1328.5571204905
25	16251	46	1315.3380581864
25	16652	47	1300.0564857848
25	17053	48	1285.5515414755
25	17454	49	1275.5011805515
25	17855	50	1269.9528729744
25	18256	51	1268.7391960809
25	18657	52	1268.7391960809
25	19058	53	1268.7391960809
25	19459	54	1268.7391960809
25	19860	55	1268.7391960809
25	20261	56	1268.7391960809
25	21050	57	1268.7391960809
25	21451	58	1268.7391960809
25	21852	59	1268.7391960809
25	22253	60	1268.7391960809
25	23098	61	1268.7391960809
25	23499	62	1268.7391960809
25	23900	63	1268.7391960809
25	24301	64	1268.7391960809
25	24682	65	1268.7391960809
25	25063	66	1268.7391960809
25	25444	67	1268.7391960809
25	25825	68	1268.7391960809
25	26507	69	1268.7391960809
25	26888	70	1268.7391960809
25	27269	71	1268.7391960809
25	27650	72	1268.7391960809
25	28031	73	1268.7391960809
25	28412	74	1268.7391960809
25	28793	75	1268.7391960809
25	29174	76	1268.7391960809
25	29555	77	1268.7391960809
25	29936	78	1268.7391960809
25	30317	79	1268.7391960809
25	30698	80	1268.7391960809
25	31079	81	1268.7391960809
25	31460	82	1268.7391960809
25	31841	83	1268.7391960809
25	32202	84	1268.7391960809
25	32563	85	1268.7391960809
25	32924	86	1268.7391960809
25	33285	87	1268.7391960809
25	33646	88	1268.7391960809
25	34666	89	1268.7391960809
26	741	8	2039.0101783718
26	921	9	2042.1217462316
26	1121	10	2047.1867028163
26	1341	11	2054.2242626333
26	1581	12	2063.1759863019
26	1841	13	2074.1588399678
26	2121	14	2086.827665362
26	2421	15	2099.9072533543
26	2741	16	2112.9822494507
26	3081	17	2126.0592313288
26	3441	18	2139.1284349227
26	3821	19	2152.1853578064
26	4221	20	2165.2119000426
26	4641	21	2175.5875913221
26	5062	22	2181.5019218853
26	5483	23	2183.0014073486
26	5904	24	2179.6798832415
26	6325	25	2174.5164711955
26	6746	26	2167.3995647333
26	7167	27	2158.2316974605
26	7588	28	2147.2206118208
26	8009	29	2134.4909259451
26	8430	30	2121.4214448272
26	9521	31	2108.3386017637
26	10357	32	2095.2711814774
26	10778	33	2082.1962364387
26	11199	34	2069.147742152
26	11620	35	2056.0778122746
26	12041	36	2043.0097472298
26	12462	37	2029.9382744655
26	12883	38	2016.8955890621
26	13304	39	2004.3363854751
26	13725	40	1995.6749893929
26	14146	41	1988.7306331239
26	14567	42	1983.9197822031
26	14988	43	1983.5699497045
26	15409	44	1983.6780036375
26	15830	45	1983.8103312914
26	16251	46	1983.966050744
26	16652	47	1984.1460663936
26	17053	48	1984.316933429
26	17454	49	1984.4342442678
26	17855	50	1984.4972813434
26	18256	51	1984.5109797282
26	18657	52	1984.5109797282
26	19058	53	1984.5109797282
26	19459	54	1984.5109797282
26	19860	55	1984.5109797282
26	20261	56	1984.5109797282
26	21050	57	1984.5109797282
26	21451	58	1984.5109797282
26	21852	59	1984.5109797282
26	22253	60	1984.5109797282
26	23098	61	1984.5109797282
26	23499	62	1984.5109797282
26	23900	63	1984.5109797282
26	24301	64	1984.5109797282
26	24682	65	1984.5109797282
26	25063	66	1984.5109797282
26	25444	67	1984.5109797282
26	25825	68	1984.5109797282
26	26507	69	1984.5109797282
26	26888	70	1984.5109797282
26	27269	71	1984.5109797282
26	27650	72	1984.5109797282
26	28031	73	1984.5109797282
26	28412	74	1984.5109797282
26	28793	75	1984.5109797282
26	29174	76	1984.5109797282
26	29555	77	1984.5109797282
26	29936	78	1984.5109797282
26	30317	79	1984.5109797282
26	30698	80	1984.5109797282
26	31079	81	1984.5109797282
26	31460	82	1984.5109797282
26	31841	83	1984.5109797282
26	32202	84	1984.5109797282
26	32563	85	1984.5109797282
26	32924	86	1984.5109797282
26	33285	87	1984.5109797282
26	33646	88	1984.5109797282
26	34666	89	1984.5109797282
29	741	8	4.1442402827533
29	921	9	5.8915676549313
29	1121	10	7.8039782132468
29	1341	11	9.7010756855787
29	1581	12	11.716744567731
29	1841	13	13.479869623636
29	2121	14	15.071967989316
29	2421	15	16.017967027917
29	2741	16	15.987586004553
29	3081	17	16.022800311172
29	3441	18	15.949243780408
29	3821	19	15.992320234529
29	4221	20	13.642374746694
29	4641	21	9.1454995012157
29	5062	22	7.4854995012157
29	5483	23	8.8203396901836
29	5904	24	9.114269564473
29	6325	25	10.937012537082
29	6746	26	12.987019744376
29	7167	27	14.892717162475
29	7588	28	15.947114699532
29	8009	29	15.959919194128
29	8430	30	15.931725739704
29	9521	31	14.516942086881
29	10357	32	10.113601243289
29	10778	33	7.4180652013547
29	11199	34	7.8349828089015
29	11620	35	6.9222539576443
29	12041	36	7.1627773838045
29	12462	37	9.1686089506696
29	12883	38	11.18036342211
29	13304	39	13.210208070851
29	13725	40	15.017814921997
29	14146	41	15.928711040812
29	14567	42	15.990058776355
29	14988	43	14.877581115625
29	15409	44	10.467581032241
29	15830	45	5.9972171347234
29	16251	46	1.4972171347234
29	16652	47	0
29	17053	48	0
29	17454	49	0
29	17855	50	0
29	18256	51	0
29	18657	52	0
29	19058	53	0
29	19459	54	0
29	19860	55	0
29	20261	56	0
29	21050	57	0
29	21451	58	0
29	21852	59	0
29	22253	60	0
29	23098	61	0
29	23499	62	0
29	23900	63	0
29	24301	64	0
29	24682	65	0
29	25063	66	0
29	25444	67	0
29	25825	68	0
29	26507	69	0
29	26888	70	0
29	27269	71	0
29	27650	72	0
29	28031	73	0
29	28412	74	0
29	28793	75	0
29	29174	76	0
29	29555	77	0
29	29936	78	0
29	30317	79	0
29	30698	80	0
29	31079	81	0
29	31460	82	0
29	31841	83	0
29	32202	84	0
29	32563	85	0
29	32924	86	0
29	33285	87	0
29	33646	88	0
29	34666	89	0
30	921	9	381.36692977865
30	1121	10	381.32897970034
30	1341	11	381.26707471531
30	1581	12	381.18412328277
30	1841	13	381.0788348313
30	2121	14	380.95512449559
30	2421	15	380.82982760904
30	2741	16	380.70470597573
30	3081	17	380.57953308111
30	3441	18	380.45448308013
30	3821	19	380.32887140678
30	4221	20	380.20362487816
30	4641	21	380.07854913693
30	5062	22	379.95323607416
30	5483	23	379.82812159324
30	5904	24	379.70295984784
30	6325	25	379.58856022327
30	6746	26	379.47593963452
30	7167	27	379.35766168572
30	7588	28	379.2876618763
30	8009	29	377.95388301229
30	8430	30	376.08
30	9521	31	376.12043416741
30	10357	32	376.18996577514
30	10778	33	376.28164559322
30	11199	34	376.39696012908
30	11620	35	376.52226101502
30	12041	36	376.64719482028
30	12462	37	376.77249118415
30	12883	38	376.89756077509
30	13304	39	377.0230149996
30	13725	40	377.14816425329
30	14146	41	377.27341402848
30	14567	42	377.39866385986
30	14988	43	377.52383149195
30	15409	44	377.64904611826
30	15830	45	377.77427891893
30	16251	46	377.89945575497
30	16652	47	378.00493651307
30	17053	48	378.0763466407
30	17454	49	378.1191735327
30	17855	50	378.14151218871
30	18256	51	378.15149106838
30	18657	52	378.16005723957
30	19058	53	378.18424139775
30	19459	54	378.22856218562
30	19860	55	377.85532648129
30	20261	56	374.06898201509
30	21050	57	368.79910653917
30	21451	58	361.77582406986
30	21852	59	352.85995679069
30	22253	60	342.94541307738
30	23098	61	330.17353087913
30	23499	62	315.39427311874
30	23900	63	298.6039482285
30	24301	64	279.73902349061
30	24682	65	260.56221180608
30	25063	66	239.71618439777
30	25444	67	219.47382979659
30	25825	68	202.74255716234
30	26507	69	190.03686866538
30	26888	70	177.41914928387
30	27269	71	164.81878415916
30	27650	72	150.23668634814
30	28031	73	133.67897984283
30	28412	74	115.38480837944
30	28793	75	95.36738266027
30	29174	76	74.194215632895
30	29555	77	55.243696654009
30	29936	78	40.764276277696
30	30317	79	30.784855901384
30	30698	80	25.28644004519
30	31079	81	23.456926671298
30	31460	82	25.559725705952
30	31841	83	29.472830200152
30	32202	84	34.680327392347
30	32563	85	38.402876355832
30	32924	86	38.822452424142
30	33285	87	38.66280720597
30	33646	88	38.456022299124
30	34666	89	38.209650951301
31	921	9	1978.8291257185
31	1121	10	1975.629386384
31	1341	11	1970.4099026718
31	1581	12	1963.4158996718
31	1841	13	1954.5385635858
31	2121	14	1944.1079967748
31	2421	15	1933.5436608304
31	2741	16	1922.9941012626
31	3081	17	1912.4402196273
31	3441	18	1901.8966996992
31	3821	19	1891.3058226842
31	4221	20	1880.7457326399
31	4641	21	1870.2000424372
31	5062	22	1859.6343426029
31	5483	23	1849.0853860854
31	5904	24	1838.5324444899
31	6325	25	1828.8869050106
31	6746	26	1819.3639324048
31	7167	27	1809.352089072
31	7588	28	1803.1918278688
31	8009	29	1800.8569415061
31	8430	30	1802.3868641398
31	9521	31	1806.2337697348
31	10357	32	1812.047182153
31	10778	33	1819.8815325116
31	11199	34	1829.6256381001
31	11620	35	1840.1909571329
31	12041	36	1850.7253240732
31	12462	37	1861.2902618055
31	12883	38	1871.836078139
31	13304	39	1882.4143266155
31	13725	40	1892.9668600792
31	14146	41	1903.5278694738
31	14567	42	1914.088883606
31	14988	43	1924.6429667288
31	15409	44	1935.2010123841
31	15830	45	1945.7605904939
31	16251	46	1956.3154496896
31	16652	47	1965.2095437153
31	17053	48	1971.2308162296
31	17454	49	1974.8419621024
31	17855	50	1976.7255483656
31	18256	51	1977.5669633846
31	18657	52	1978.2892594068
31	19058	53	1980.3284576518
31	19459	54	1984.0655682078
31	19860	55	1988.9288406607
31	20261	56	1991.6109471565
31	21050	57	1991.9214636985
31	21451	58	1992.089807536
31	21852	59	1992.2959547563
31	22253	60	1995.6697558155
31	23098	61	1995.7963064776
31	23499	62	1995.9516820058
31	23900	63	1996.206723159
31	24301	64	1995.4638305256
31	24682	65	1990.4408849666
31	25063	66	1993.6122648364
31	25444	67	1994.5122411616
31	25825	68	1995.0877842462
31	26507	69	1998.3591686594
31	26888	70	1998.6019727527
31	27269	71	1998.8444428962
31	27650	72	1999.1130420048
31	28031	73	1999.4229851741
31	28412	74	1999.7707831107
31	28793	75	2000.151342535
31	29174	76	2000.5495515624
31	29555	77	2000.9053270748
31	29936	78	2001.1796698198
31	30317	79	2001.3680412823
31	30698	80	2001.4739072915
31	31079	81	2003.2170763579
31	31460	82	2004.6698007084
31	31841	83	2004.594458143
31	32202	84	2004.6882192274
31	32563	85	2007.3061113948
31	32924	86	2012.3121592377
31	33285	87	2019.0642128769
31	33646	88	2027.8099980547
31	34666	89	2038.2300568244
32	921	9	1.747327372178
32	1121	10	1.9124105583155
32	1341	11	1.897097472332
32	1581	12	2.0156688821525
32	1841	13	1.763125055905
32	2121	14	1.5920983656798
32	2421	15	0.94599903860138
32	2741	16	-0.030381023364608
32	3081	17	0.035214306619018
32	3441	18	-0.073556530764327
32	3821	19	0.04307645412162
32	4221	20	-2.3499454878355
32	4641	21	-4.496875245478
32	5062	22	-1.66
32	5483	23	1.334840188968
32	5904	24	0.29392987428931
32	6325	25	1.8227429726091
32	6746	26	2.0500072072935
32	7167	27	1.9056974180997
32	7588	28	1.0543975370569
32	8009	29	0.012804494595622
32	8430	30	-0.028193454423453
32	9521	31	-1.4147836528231
32	10357	32	-4.4033408435921
32	10778	33	-2.6955360419345
32	11199	34	0.41691760754678
32	11620	35	-0.91272885125716
32	12041	36	0.24052342616022
32	12462	37	2.0058315668651
32	12883	38	2.0117544714408
32	13304	39	2.0298446487403
32	13725	40	1.8076068511466
32	14146	41	0.91089611881479
32	14567	42	0.061347735542803
32	14988	43	-1.1124776607296
32	15409	44	-4.4100000833846
32	15830	45	-4.4703638975172
32	16251	46	-4.5
32	16652	47	-1.4972171347234
32	17053	48	0
32	17454	49	0
32	17855	50	0
32	18256	51	0
32	18657	52	0
32	19058	53	0
32	19459	54	0
32	19860	55	0
32	20261	56	0
32	21050	57	0
32	21451	58	0
32	21852	59	0
32	22253	60	0
32	23098	61	0
32	23499	62	0
32	23900	63	0
32	24301	64	0
32	24682	65	0
32	25063	66	0
32	25444	67	0
32	25825	68	0
32	26507	69	0
32	26888	70	0
32	27269	71	0
32	27650	72	0
32	28031	73	0
32	28412	74	0
32	28793	75	0
32	29174	76	0
32	29555	77	0
32	29936	78	0
32	30317	79	0
32	30698	80	0
32	31079	81	0
32	31460	82	0
32	31841	83	0
32	32202	84	0
32	32563	85	0
32	32924	86	0
32	33285	87	0
32	33646	88	0
32	34666	89	0
33	921	9	3.8940745542467
33	1121	10	5.1271524920943
33	1341	11	6.0976562181216
33	1581	12	7.5155227847418
33	1841	13	7.7143140727487
33	2121	14	7.9364090391561
33	2421	15	5.9142352797386
33	2741	16	2.1416866560471
33	3081	17	2.398923563469
33	3441	18	1.9714516023695
33	3821	19	2.4253319060891
33	4221	20	0.973
33	4641	21	0.973
33	5062	22	0.973
33	5483	23	4.4363566155712
33	5904	24	2.2652428264356
33	6325	25	6.5628800746192
33	6746	26	8.3551025568123
33	7167	27	8.9733854741553
33	7588	28	6.3062512707777
33	8009	29	2.3047043461973
33	8430	30	2.1438570671674
33	9521	31	0.973
33	10357	32	0.973
33	10778	33	0.973
33	11199	34	2.3196273386339
33	11620	35	0.973
33	12041	36	1.9046792020419
33	12462	37	6.0556493427303
33	12883	38	7.1990521681056
33	13304	39	8.4225577256689
33	13725	40	8.6896098336867
33	14146	41	5.7485153349335
33	14567	42	2.4954493553958
33	14988	43	0.973
33	15409	44	0.973
33	15830	45	0.973
33	16251	46	0.973
33	16652	47	0.973
33	17053	48	0.973
33	17454	49	0.973
33	17855	50	0.973
33	18256	51	0.973
33	18657	52	0.973
33	19058	53	0.973
33	19459	54	0.973
33	19860	55	0.973
33	20261	56	0.973
33	21050	57	0.973
33	21451	58	0.973
33	21852	59	0.973
33	22253	60	0.973
33	23098	61	0.973
33	23499	62	0.973
33	23900	63	0.973
33	24301	64	0.973
33	24682	65	0.973
33	25063	66	0.973
33	25444	67	0.973
33	25825	68	0.973
33	26507	69	0.973
33	26888	70	0.973
33	27269	71	0.973
33	27650	72	0.973
33	28031	73	0.973
33	28412	74	0.973
33	28793	75	0.973
33	29174	76	0.973
33	29555	77	0.973
33	29936	78	0.973
33	30317	79	0.973
33	30698	80	0.973
33	31079	81	0.973
33	31460	82	0.973
33	31841	83	0.973
33	32202	84	0.973
33	32563	85	0.973
33	32924	86	0.973
33	33285	87	0.973
33	33646	88	0.973
33	34666	89	0.973
34	921	9	4.0030390066499
34	1121	10	5.9317955545787
34	1341	11	7.918152436871
34	1581	12	9.8067787985023
34	1841	13	11.837662497422
34	2121	14	13.111114107098
34	2421	15	13.047208485366
34	2741	16	13.082858300235
34	3081	17	13.050442139584
34	3441	18	13.066969914379
34	3821	19	13.077502230213
34	4221	20	12.790822598931
34	4641	21	8.3949260557224
34	5062	22	3.90073027342
34	5483	23	3.3222197974301
34	5904	24	4.183323180195
34	6325	25	6.0468133754367
34	6746	26	7.9881397579112
34	7167	27	10.043342921558
34	7588	28	11.871750526427
34	8009	29	13.02620708515
34	8430	30	13.053027748128
34	9521	31	13.103130497356
34	10357	32	13.101439514852
34	10778	33	13.087522057356
34	11199	34	13.100640064336
34	11620	35	13.091646975962
34	12041	36	13.047240477051
34	12462	37	13.086706667871
34	12883	38	13.082635633329
34	13304	39	11.134437359682
34	13725	40	6.6431434358622
34	14146	41	7.1158452252549
34	14567	42	7.0915525658539
34	14988	43	8.1425038267224
34	15409	44	10.223822696905
34	15830	45	12.13472996521
34	16251	46	14.193865132925
34	16652	47	16.154239044748
34	17053	48	12.526678736754
34	17454	49	8.0266787367537
34	17855	50	3.5316516997382
34	18256	51	0
34	18657	52	0
34	19058	53	0
34	19459	54	0
34	19860	55	0
34	20261	56	0
34	21050	57	0
34	21451	58	0
34	21852	59	0
34	22253	60	0
34	23098	61	0
34	23499	62	0
34	23900	63	0
34	24301	64	0
34	24682	65	0
34	25063	66	0
34	25444	67	0
34	25825	68	0
34	26507	69	0
34	26888	70	0
34	27269	71	0
34	27650	72	0
34	28031	73	0
34	28412	74	0
34	28793	75	0
34	29174	76	0
34	29555	77	0
34	29936	78	0
34	30317	79	0
34	30698	80	0
34	31079	81	0
34	31460	82	0
34	31841	83	0
34	32202	84	0
34	32563	85	0
34	32924	86	0
34	33285	87	0
34	33646	88	0
34	34666	89	0
35	1121	10	236.52057292628
35	1341	11	236.5547996709
35	1581	12	236.60947214941
35	1841	13	236.68839721122
35	2121	14	236.79152040599
35	2421	15	236.91814677876
35	2741	16	240.26786961776
35	3081	17	240.44181531454
35	3441	18	240.63599711223
35	3821	19	240.85042427687
35	4221	20	241.08728701894
35	4641	21	241.34498240976
35	5062	22	241.6202170301
35	5483	23	241.9384445615
35	5904	24	242.28848699574
35	6325	25	242.63823823677
35	6746	26	242.94216041571
35	7167	27	243.19291854304
35	7588	28	243.40279923938
35	8009	29	243.5722790577
35	8430	30	243.71419773719
35	9521	31	243.81777340195
35	10357	32	243.88369956903
35	10778	33	243.92010793574
35	11199	34	243.94304699633
35	11620	35	243.97766371017
35	12041	36	244.02866132604
35	12462	37	244.48706189632
35	12883	38	247.60431211426
35	13304	39	256.43655552011
35	13725	40	267.21161330207
35	14146	41	279.26888480779
35	14567	42	293.51719445659
35	14988	43	309.93797933065
35	15409	44	328.28948272309
35	15830	45	346.21913107999
35	16251	46	358.20401952577
35	16652	47	367.02756489402
35	17053	48	371.36496841157
35	17454	49	371.85899999477
35	17855	50	371.85899999477
35	18256	51	371.85899999477
35	18657	52	371.85899999477
35	19058	53	371.85899999477
35	19459	54	371.85899999477
35	19860	55	371.85899999477
35	20261	56	371.85899999477
35	21050	57	371.85899999477
35	21451	58	371.85899999477
35	21852	59	371.85899999477
35	22253	60	371.85899999477
35	23098	61	371.85899999477
35	23499	62	371.85899999477
35	23900	63	371.85899999477
35	24301	64	371.85899999477
35	24682	65	371.85899999477
35	25063	66	371.85899999477
35	25444	67	371.85899999477
35	25825	68	371.85899999477
35	26507	69	371.85899999477
35	26888	70	371.85899999477
35	27269	71	371.85899999477
35	27650	72	371.85899999477
35	28031	73	371.85899999477
35	28412	74	371.85899999477
35	28793	75	371.85899999477
35	29174	76	371.85899999477
35	29555	77	371.85899999477
35	29936	78	371.85899999477
35	30317	79	371.85899999477
35	30698	80	371.85899999477
35	31079	81	371.85899999477
35	31460	82	371.85899999477
35	31841	83	371.85899999477
35	32202	84	371.85899999477
35	32563	85	371.85899999477
35	32924	86	371.85899999477
35	33285	87	371.85899999477
35	33646	88	371.85899999477
35	34666	89	371.85899999477
36	1121	10	1629.3678732752
36	1341	11	1632.3446440031
36	1581	12	1637.0996224695
36	1841	13	1643.963898236
36	2121	14	1652.9327356453
36	2421	15	1663.9456930266
36	2741	16	1676.9339460318
36	3081	17	1692.0613910694
36	3441	18	1708.9486985815
36	3821	19	1727.5966744027
36	4221	20	1748.1957934291
36	4641	21	1770.6066545959
36	5062	22	1794.9205333809
36	5483	23	1821.2951418358
36	5904	24	1849.6090089943
36	6325	25	1877.8993224211
36	6746	26	1902.4826624952
36	7167	27	1923.3100566981
36	7588	28	1940.4072611157
36	8009	29	1953.6693860143
36	8430	30	1963.6867427345
36	9521	31	1970.8852514359
36	10357	32	1975.4671200478
36	10778	33	1977.997501534
36	11199	34	1979.5917662453
36	11620	35	1981.9976278569
36	12041	36	1985.5419621601
36	12462	37	1990.8195363076
36	12883	38	1997.302084359
36	13304	39	1999.9355176476
36	13725	40	2003.1359554857
36	14146	41	2000.7981901416
36	14567	42	1999.4926021123
36	14988	43	1999.2276474694
36	15409	44	1999.0153709791
36	15830	45	1999.68017186
36	16251	46	2004.9793290283
36	16652	47	2004.7718944876
36	17053	48	2004.6663533517
36	17454	49	2004.6543404257
36	17855	50	2004.6543404257
36	18256	51	2004.6543404257
36	18657	52	2004.6543404257
36	19058	53	2004.6543404257
36	19459	54	2004.6543404257
36	19860	55	2004.6543404257
36	20261	56	2004.6543404257
36	21050	57	2004.6543404257
36	21451	58	2004.6543404257
36	21852	59	2004.6543404257
36	22253	60	2004.6543404257
36	23098	61	2004.6543404257
36	23499	62	2004.6543404257
36	23900	63	2004.6543404257
36	24301	64	2004.6543404257
36	24682	65	2004.6543404257
36	25063	66	2004.6543404257
36	25444	67	2004.6543404257
36	25825	68	2004.6543404257
36	26507	69	2004.6543404257
36	26888	70	2004.6543404257
36	27269	71	2004.6543404257
36	27650	72	2004.6543404257
36	28031	73	2004.6543404257
36	28412	74	2004.6543404257
36	28793	75	2004.6543404257
36	29174	76	2004.6543404257
36	29555	77	2004.6543404257
36	29936	78	2004.6543404257
36	30317	79	2004.6543404257
36	30698	80	2004.6543404257
36	31079	81	2004.6543404257
36	31460	82	2004.6543404257
36	31841	83	2004.6543404257
36	32202	84	2004.6543404257
36	32563	85	2004.6543404257
36	32924	86	2004.6543404257
36	33285	87	2004.6543404257
36	33646	88	2004.6543404257
36	34666	89	2004.6543404257
37	1121	10	1.9287565479288
37	1341	11	1.9863568822923
37	1581	12	1.8886263616313
37	1841	13	2.0308836989198
37	2121	14	1.2734516096764
37	2421	15	-0.06390562173212
37	2741	16	0.035649814868812
37	3081	17	-0.032416160651483
37	3441	18	0.016527774794959
37	3821	19	0.010532315834425
37	4221	20	-0.28667963128213
37	4641	21	-4.3958965432085
37	5062	22	-4.4941957823024
37	5483	23	-0.5785104759899
37	5904	24	0.86110338276485
37	6325	25	1.8634901952418
37	6746	26	1.9413263824745
37	7167	27	2.0552031636471
37	7588	28	1.828407604869
37	8009	29	1.1544565587226
37	8430	30	0.026820662978571
37	9521	31	0.050102749227081
37	10357	32	-0.0016909825033515
37	10778	33	-0.01391745749628
37	11199	34	0.013118006980511
37	11620	35	-0.0089930883748455
37	12041	36	-0.044406498910393
[...]
84	17454	49	14.675434112524
84	17855	50	14.613162437215
84	18256	51	14.584882724759
84	18657	52	14.619034093191
84	19058	53	14.638084418908
84	19459	54	14.679588850451
84	19860	55	14.681570839641
84	20261	56	14.662826346232
84	21050	57	14.627460823763
84	21451	58	14.591657075525
84	21852	59	14.658226575054
84	22253	60	14.613780158606
84	23098	61	14.644500639829
84	23499	62	14.658398528438
84	23900	63	14.562064178031
84	24301	64	14.607823900256
84	24682	65	14.590437261314
84	25063	66	14.66247718921
84	25444	67	14.594061719665
84	25825	68	14.57532635738
84	26507	69	14.60970311714
84	26888	70	14.576642661745
84	27269	71	14.671986218764
84	27650	72	14.567398585045
84	28031	73	14.637318972292
84	28412	74	14.592895136304
84	28793	75	14.616766385526
84	29174	76	14.626178927225
84	29555	77	14.646744926794
84	29936	78	14.617230705022
84	30317	79	14.59166337069
84	30698	80	14.589028827896
84	31079	81	14.659577905257
84	31460	82	14.625788027627
84	31841	83	14.619562453293
84	32202	84	14.675141480932
84	32563	85	14.594477714145
84	32924	86	14.615404229372
84	33285	87	14.55773110977
84	33646	88	14.674343583285
84	34666	89	14.558067415642
85	4221	20	667.0939754077
85	4641	21	667.05521027014
85	5062	22	666.99185684515
85	5483	23	666.90364183543
85	5904	24	666.79000863016
85	6325	25	666.65310825465
85	6746	26	666.49234690861
85	7167	27	666.30992783869
85	7588	28	666.10372297326
85	8009	29	665.87521650481
85	8430	30	665.62152520468
85	9521	31	665.34487091033
85	10357	32	665.04576319304
85	10778	33	664.72446993431
85	11199	34	664.37846204636
85	11620	35	664.00978257419
85	12041	36	663.63671413063
85	12462	37	663.2572004707
85	12883	38	662.87757901265
85	13304	39	662.49934966973
85	13725	40	662.1314107238
85	14146	41	658.55897477338
85	14567	42	658.18338465785
85	14988	43	657.80748152501
85	15409	44	657.43139009796
85	15830	45	653.85481586202
85	16251	46	653.47822247739
85	16652	47	653.09700067595
85	17053	48	652.72365737712
85	17454	49	652.35036983304
85	17855	50	651.97683182867
85	18256	51	651.60258385425
85	18657	52	651.22819797731
85	19058	53	650.85437952014
85	19459	54	650.47359933389
85	19860	55	650.09798084942
85	20261	56	649.72245238403
85	21050	57	649.3472542817
85	21451	58	648.97174645899
85	21852	59	648.59606235556
85	22253	60	648.22545967014
85	23098	61	647.84883958597
85	23499	62	647.47223279326
85	23900	63	647.09838484728
85	24301	64	646.7667301563
85	24682	65	646.49028252649
85	25063	66	646.26903195742
85	25444	67	646.10296511516
85	25825	68	645.68460846144
85	26507	69	641.22230979256
85	26888	70	631.71053444864
85	27269	71	620.21875007992
85	27650	72	607.58510631436
85	28031	73	592.31144809248
85	28412	74	575.22567288524
85	28793	75	556.75857914829
85	29174	76	543.0049675611
85	29555	77	532.57752070445
85	29936	78	526.64988071496
85	30317	79	525.14750030129
85	30698	80	525.14750030129
85	31079	81	525.14750030129
85	31460	82	525.14750030129
85	31841	83	525.14750030129
85	32202	84	525.14750030129
85	32563	85	525.14750030129
85	32924	86	525.14750030129
85	33285	87	525.14750030129
85	33646	88	525.14750030129
85	34666	89	525.14750030129
86	4221	20	3201.058978524
86	4641	21	3197.8919625018
86	5062	22	3192.7161441081
86	5483	23	3185.5091956289
86	5904	24	3176.2256433342
86	6325	25	3165.0412206805
86	6746	26	3151.9074156507
86	7167	27	3137.004228056
86	7588	28	3120.1577996978
86	8009	29	3101.4893854392
86	8430	30	3080.7634326167
86	9521	31	3058.0773437956
86	10357	32	3033.5183285017
86	10778	33	3007.1377117581
86	11199	34	2978.7278362498
86	11620	35	2948.4564514875
86	12041	36	2917.7727371613
86	12462	37	2887.0760413776
86	12883	38	2856.3706264199
86	13304	39	2825.6557536109
86	13725	40	2795.0725900515
86	14146	41	2764.3980954754
86	14567	42	2733.7090195434
86	14988	43	2702.9943672936
86	15409	44	2672.2879618333
86	15830	45	2641.62267798
86	16251	46	2610.9158327719
86	16652	47	2580.2196590513
86	17053	48	2549.5089542452
86	17454	49	2518.8028357486
86	17855	50	2488.0985004434
86	18256	51	2457.4032996052
86	18657	52	2426.696788231
86	19058	53	2396.1066242675
86	19459	54	2365.4064273224
86	19860	55	2334.6991988632
86	20261	56	2303.999329564
86	21050	57	2273.3264678113
86	21451	58	2242.628286074
86	21852	59	2211.9156931918
86	22253	60	2181.2198623463
86	23098	61	2150.5244734047
86	23499	62	2119.8301677479
86	23900	63	2089.3607143405
86	24301	64	2062.3301066755
86	24682	65	2039.7989993992
86	25063	66	2021.7665774528
86	25444	67	2008.2317540917
86	25825	68	1998.7639483289
86	26507	69	1991.9070513582
86	26888	70	1988.5254289091
86	27269	71	1988.6415862936
86	27650	72	1991.9881802943
86	28031	73	1992.1805750139
86	28412	74	1992.3968080842
86	28793	75	1992.6244957216
86	29174	76	1986.3723224499
86	29555	77	1986.4650425656
86	29936	78	1986.5136854662
86	30317	79	1986.5294999968
86	30698	80	1986.5294999968
86	31079	81	1986.5294999968
86	31460	82	1986.5294999968
86	31841	83	1986.5294999968
86	32202	84	1986.5294999968
86	32563	85	1986.5294999968
86	32924	86	1986.5294999968
86	33285	87	1986.5294999968
86	33646	88	1986.5294999968
86	34666	89	1986.5294999968
87	4221	20	1.8740660020523
87	4641	21	2.1374922665535
87	5062	22	1.7117624271917
87	5483	23	2.0445226144488
87	5904	24	1.6621516623069
87	6325	25	1.2984824496396
87	6746	26	0.020791678472888
87	7167	27	-0.010934719294308
87	7588	28	-0.077261711133179
87	8009	29	0.053789624427445
87	8430	30	-0.04281554349698
87	9521	31	0.069537701986263
87	10357	32	-0.096009280828293
87	10778	33	0.038374357332941
87	11199	34	-0.024426224022173
87	11620	35	-0.030321028346661
87	12041	36	0.0531308971229
87	12462	37	-0.02808267109096
87	12883	38	-0.0031858133990319
87	13304	39	0.013936816141941
87	13725	40	0.039308426945937
87	14146	41	-0.032630319378805
87	14567	42	0.046128049837426
87	14988	43	0.024024535946083
87	15409	44	-0.042892230642028
87	15830	45	0.034237060877494
87	16251	46	-0.033830260084942
87	16652	47	-0.036615477446468
87	17053	48	-0.028692125629167
87	17454	49	0.10803967504064
87	17855	50	-0.062271675309168
87	18256	51	-0.028279712456278
87	18657	52	0.034151368432214
87	19058	53	0.019050325716378
87	19459	54	0.041504431543872
87	19860	55	0.0019819891895168
87	20261	56	-0.018744493408594
87	21050	57	-0.035365522468929
87	21451	58	-0.03580374823883
87	21852	59	0.066569499529432
87	22253	60	-0.044446416448336
87	23098	61	0.030720481222961
87	23499	62	0.013897888609208
87	23900	63	-0.096334350407123
87	24301	64	0.045759722224902
87	24682	65	-0.017386638941243
87	25063	66	0.072039927896112
87	25444	67	-0.068415469545872
87	25825	68	-0.018735362284351
87	26507	69	0.034376759759617
87	26888	70	-0.033060455394443
87	27269	71	0.095343557018786
87	27650	72	-0.1045876337192
87	28031	73	0.069920387247112
87	28412	74	-0.044423835987692
87	28793	75	0.023871249221266
87	29174	76	0.0094125416991293
87	29555	77	0.020565999569373
87	29936	78	-0.029514221772553
87	30317	79	-0.025567334331571
87	30698	80	-0.0026345427939667
87	31079	81	0.070549077361356
87	31460	82	-0.03378987763077
87	31841	83	-0.0062255743332216
87	32202	84	0.055579027638306
87	32563	85	-0.080663766786456
87	32924	86	0.020926515227183
87	33285	87	-0.057673119602258
87	33646	88	0.1166124735144
87	34666	89	-0.11627616764279
88	4221	20	4.0311647813697
88	4641	21	5.6322983646664
88	5062	22	5.6427394452126
88	5483	23	7.5879975030438
88	5904	24	7.3281738747947
88	6325	25	6.696640586924
88	6746	26	2.1842657150135
88	7167	27	2.0708499777949
88	7588	28	1.8294524966408
88	8009	29	2.2968727281878
88	8430	30	1.9516729588316
88	9521	31	2.3557957572724
88	10357	32	1.7622096224959
88	10778	33	2.2388419576397
88	11199	34	2.0151314216317
88	11620	35	1.9913732252067
88	12041	36	2.2906314891945
88	12462	37	2.0017423766837
88	12883	38	2.0889310156689
88	13304	39	2.1506558695175
88	13725	40	2.2445148497303
88	14146	41	1.9874874208954
88	14567	42	2.2701756912802
88	14988	43	2.1948593139743
88	15409	44	1.9540151675584
88	15830	45	2.2299729421397
88	16251	46	1.9860115938834
88	16652	47	1.972579046253
88	17053	48	1.9975742363824
88	17454	49	2.4920303927901
88	17855	50	1.883906207287
88	18256	51	2.0007762946241
88	18657	52	2.2241654025022
88	19058	53	2.1730978467345
88	19459	54	2.2571999339448
88	19860	55	2.1175931305272
88	20261	56	2.0423196188019
88	21050	57	1.9800784558607
88	21451	58	1.9749975234144
88	21852	59	2.3432275114402
88	22253	60	1.9467424484875
88	23098	61	2.2150057722235
88	23499	62	2.1571771716933
88	23900	63	1.7596530889502
88	24301	64	2.2637359446569
88	24682	65	2.0396372298267
88	25063	66	2.3630845551665
88	25444	67	1.8605337574677
88	25825	68	2.0333434229325
88	26507	69	2.2238797590317
88	26888	70	1.9831548474256
88	27269	71	2.4466757256585
88	27650	72	1.731125023467
88	28031	73	2.3524608724947
88	28412	74	1.944803744181
88	28793	75	2.1876898853736
88	29174	76	2.1377901439173
88	29555	77	2.1794201076625
88	29936	78	1.9996786419473
88	30317	79	2.0109954239444
88	30698	80	2.0913598233287
88	31079	81	2.3574545362773
88	31460	82	1.9854666937476
88	31841	83	2.081965864419
88	32202	84	2.3064531421345
88	32563	85	1.8174909636596
88	32924	86	2.177163419369
88	33285	87	1.8949296637855
88	33646	88	2.5222021517943
88	34666	89	1.6893525085444
89	4221	20	3.884087117123
89	4641	21	6.0288292857814
89	5062	22	8.0029749326171
89	5483	23	10.1203899058
89	5904	24	12.215800222051
89	6325	25	13.929751889975
89	6746	26	15.923682715657
89	7167	27	17.755096448978
89	7588	28	19.69040705414
89	8009	29	19.988701692663
89	8430	30	20.069222866373
89	9521	31	20.043150401679
89	10357	32	20.078260626539
89	10778	33	20.003218974757
89	11199	34	20.070999811797
89	11620	35	20.014798974502
89	12041	36	20.082264775829
89	12462	37	20.025678240035
89	12883	38	20.108354696131
89	13304	39	20.083671934239
89	13725	40	20.092138818197
89	14146	41	19.995365094198
89	14567	42	20.034059799577
89	14988	43	20.035344032107
89	15409	44	20.095571021035
89	15830	45	20.112903461156
89	16251	46	20.000606530981
89	16652	47	20.080419306082
89	17053	48	20.064740563454
89	17454	49	20.035418577127
89	17855	50	20.086605108224
89	18256	51	20.11165983258
89	18657	52	20.114833326517
89	19058	53	20.076627152932
89	19459	54	20.049046365539
89	19860	55	20.11097190097
89	20261	56	19.992091420863
89	21050	57	19.989897942764
89	21451	58	20.103574195639
89	21852	59	20.084174871838
89	22253	60	20.072493794372
89	23098	61	19.991094064226
89	23499	62	20.055312282555
89	23900	63	20.070838654972
89	24301	64	20.075169738713
89	24682	65	20.024319125512
89	25063	66	20.08737477008
89	25444	67	20.060219656657
89	25825	68	20.003300153823
89	26507	69	20.062333331795
89	26888	70	20.064539297495
89	27269	71	20.027308364459
89	27650	72	20.096613185215
89	28031	73	20.083687389344
89	28412	74	20.035195541405
89	28793	75	20.043266556761
89	29174	76	20.09430700331
89	29555	77	20.114510459327
89	29936	78	20.038108736069
89	30317	79	20.021143311928
89	30698	80	20.068552995305
89	31079	81	16.364431354103
89	31460	82	11.865722292399
89	31841	83	7.3657222923991
89	32202	84	2.8684357977762
89	32563	85	0
89	32924	86	0
89	33285	87	0
89	33646	88	0
89	34666	89	0
90	4641	21	2.1447421686584
90	5062	22	1.9741456468357
90	5483	23	2.1174149731826
90	5904	24	2.0954103162512
90	6325	25	1.7139516679244
90	6746	26	1.9939308256819
90	7167	27	1.8314137333213
90	7588	28	1.9353106051614
90	8009	29	0.29829463852363
90	8430	30	0.080521173710004
90	9521	31	-0.026072464694735
90	10357	32	0.035110224860254
90	10778	33	-0.075041651781646
90	11199	34	0.067780837039464
90	11620	35	-0.056200837295037
90	12041	36	0.067465801327486
90	12462	37	-0.056586535794192
90	12883	38	0.082676456095651
90	13304	39	-0.024682761891746
90	13725	40	0.0084668839583166
90	14146	41	-0.096773723999505
90	14567	42	0.038694705378731
90	14988	43	0.0012842325307432
90	15409	44	0.060226988927461
90	15830	45	0.017332440121098
90	16251	46	-0.11229693017434
90	16652	47	0.079812775100581
90	17053	48	-0.015678742628079
90	17454	49	-0.029321986327414
90	17855	50	0.051186531097628
90	18256	51	0.02505472435616
90	18657	52	0.0031734939361918
90	19058	53	-0.038206173584328
90	19459	54	-0.0275807873928
90	19860	55	0.061925535430202
90	20261	56	-0.11888048010645
90	21050	57	-0.0021934780990733
90	21451	58	0.11367625287501
90	21852	59	-0.019399323801043
90	22253	60	-0.011681077466349
90	23098	61	-0.081399730145929
90	23499	62	0.064218218328897
90	23900	63	0.015526372417806
90	24301	64	0.0043310837401087
90	24682	65	-0.050850613201039
90	25063	66	0.063055644568522
90	25444	67	-0.027155113422776
90	25825	68	-0.056919502834791
90	26507	69	0.059033177972307
90	26888	70	0.0022059657005578
90	27269	71	-0.037230933036188
90	27650	72	0.069304820755498
90	28031	73	-0.012925795870835
90	28412	74	-0.048491847938859
90	28793	75	0.0080710153561085
90	29174	76	0.051040446548726
90	29555	77	0.020203456017189
90	29936	78	-0.076401723257732
90	30317	79	-0.016965424141382
90	30698	80	0.047409683377481
90	31079	81	-3.7041216412028
90	31460	82	-4.4987090617034
90	31841	83	-4.5
90	32202	84	-4.497286494623
90	32563	85	-2.8684357977762
90	32924	86	0
90	33285	87	0
90	33646	88	0
90	34666	89	0
91	4641	21	4.5372721141483
91	5062	22	5.3509824706704
91	5483	23	6.8583679572383
91	5904	24	8.0365932226539
91	6325	25	7.7855182787447
91	6746	26	9.9030776107976
91	7167	27	10.320146395409
91	7588	28	11.948904889876
91	8009	29	4.2490021806659
91	8430	30	3.2143259871875
91	9521	31	2.6947659522407
91	10357	32	2.9962093705964
91	10778	33	2.4525842422489
91	11199	34	3.1530181338234
91	11620	35	2.5450982129501
91	12041	36	3.1534792146714
91	12462	37	2.5448226812457
91	12883	38	3.2317943749236
91	13304	39	2.7077130177043
91	13725	40	2.8695353529099
91	14146	41	2.3467525180798
91	14567	42	3.0060823077026
91	14988	43	2.8256619544712
91	15409	44	3.1207678574226
91	15830	45	2.9158781370137
91	16251	46	2.2726399195489
91	16652	47	3.2129056477936
91	17053	48	2.7483380075501
91	17454	49	2.6778906407022
91	17855	50	3.0754385193905
91	18256	51	2.9531027521208
91	18657	52	2.8475577054644
91	19058	53	2.6411952818983
91	19459	54	2.6883819939093
91	19860	55	3.1316916915149
91	20261	56	2.2397958421777
91	21050	57	2.8016571980235
91	21451	58	3.3811257590994
91	21852	59	2.7333638617047
91	22253	60	2.7688867059302
91	23098	61	2.420242604194
91	23499	62	3.133035759803
91	23900	63	2.9002311214361
91	24301	64	2.8467757872515
91	24682	65	2.5723053758602
91	25063	66	3.1330302654548
91	25444	67	2.6921500387844
91	25825	68	2.5399588633521
91	26507	69	3.1091962322139
91	26888	70	2.8347890756309
91	27269	71	2.6384816644424
91	27650	72	3.1649164153151
91	28031	73	2.764621097441
91	28412	74	2.5852953115038
91	28793	75	2.8597113538462
91	29174	76	3.0760591527611
91	29555	77	2.9300600739311
91	29936	78	2.4509439957237
91	30317	79	2.7353375143045
91	30698	80	3.0540614752607
91	31079	81	0.973
91	31460	82	0.973
91	31841	83	0.973
91	32202	84	0.973
91	32563	85	0.973
91	32924	86	0.973
91	33285	87	0.973
91	33646	88	0.973
91	34666	89	0.973
92	4641	21	4.0331918461099
92	5062	22	6.1657285433346
92	5483	23	8.1122150514987
92	5904	24	10.223201928087
92	6325	25	12.10690331112
92	6746	26	13.974953263266
92	7167	27	15.731040991597
92	7588	28	17.727940024912
92	8009	29	19.525434435999
92	8430	30	21.70655784411
92	9521	31	23.419103122462
92	10357	32	25.397639529818
92	10778	33	27.27010417883
92	11199	34	29.367854899814
92	11620	35	30.717707372515
92	12041	36	30.691596862872
92	12462	37	30.650636422574
92	12883	38	30.706590502826
92	13304	39	30.742297259551
92	13725	40	30.678660810907
92	14146	41	30.653591178842
92	14567	42	30.717470549576
92	14988	43	30.646619381544
92	15409	44	30.739030293723
92	15830	45	30.725585895118
92	16251	46	30.73326319892
92	16652	47	30.657766148616
92	17053	48	30.645628567695
92	17454	49	30.753453026112
92	17855	50	30.669846273882
92	18256	51	30.736030344842
92	18657	52	30.768561269429
92	19058	53	30.725965165364
92	19459	54	30.721791933123
92	19860	55	30.707137903639
92	20261	56	30.749676192829
92	21050	57	30.665682438186
92	21451	58	30.689764196331
92	21852	59	30.741580426889
92	22253	60	30.65475253356
92	23098	61	30.674616322567
92	23499	62	30.64721247996
92	23900	63	29.508609064857
92	24301	64	25.008609064857
92	24682	65	20.508609064857
92	25063	66	16.011326228507
92	25444	67	11.511326228507
92	25825	68	8.8532230246114
92	26507	69	8.7633530763374
92	26888	70	10.387180537872
92	27269	71	12.403495644624
92	27650	72	14.288706514281
92	28031	73	16.00838578755
92	28412	74	18.073333074239
92	28793	75	17.346419509967
92	29174	76	12.893875549688
92	29555	77	8.4024468566424
92	29936	78	3.9095549645157
92	30317	79	0
92	30698	80	0
92	31079	81	0
92	31460	82	0
92	31841	83	0
92	32202	84	0
92	32563	85	0
92	32924	86	0
92	33285	87	0
92	33646	88	0
92	34666	89	0
93	5062	22	2.1325366972247
93	5483	23	1.9464865081641
93	5904	24	2.1109868765878
93	6325	25	1.8837013830338
93	6746	26	1.8680499521457
93	7167	27	1.7560877283313
93	7588	28	1.9968990333146
93	8009	29	1.7974944110867
93	8430	30	2.1811234081118
93	9521	31	1.7125452783518
93	10357	32	1.9785364073562
93	10778	33	1.8724646490114
93	11199	34	2.0977507209848
93	11620	35	1.349852472701
93	12041	36	-0.026110509643331
93	12462	37	-0.040960440298075
93	12883	38	0.055954080251976
93	13304	39	0.035706756724977
93	13725	40	-0.0636364486441
93	14146	41	-0.025069632064554
93	14567	42	0.06387937073363
93	14988	43	-0.070851168031805
93	15409	44	0.092410912178458
93	15830	45	-0.013444398604335
93	16251	46	0.0076773038017564
93	16652	47	-0.075497050303966
93	17053	48	-0.012137580921408
93	17454	49	0.10782445841702
93	17855	50	-0.083606752229386
93	18256	51	0.066184070960151
93	18657	52	0.032530924587046
93	19058	53	-0.04259610406589
93	19459	54	-0.0041732322401344
93	19860	55	-0.014654029484376
93	20261	56	0.042538289190272
93	21050	57	-0.083993754643014
93	21451	58	0.024081758144309
93	21852	59	0.051816230558327
93	22253	60	-0.086827893329321
93	23098	61	0.019863789007069
93	23499	62	-0.027403842606581
93	23900	63	-1.1386034151028
93	24301	64	-4.5
93	24682	65	-4.5
93	25063	66	-4.4972828363507
93	25444	67	-4.5
93	25825	68	-2.6581032038953
93	26507	69	-0.089869948273991
93	26888	70	1.6238274615351
93	27269	71	2.0163151067519
93	27650	72	1.8852108696569
93	28031	73	1.7196792732691
93	28412	74	2.0649472866883
93	28793	75	-0.72691356427195
93	29174	76	-4.4525439602783
93	29555	77	-4.491428693046
93	29936	78	-4.4928918921268
93	30317	79	-3.9095549645157
93	30698	80	0
93	31079	81	0
93	31460	82	0
93	31841	83	0
93	32202	84	0
93	32563	85	0
93	32924	86	0
93	33285	87	0
93	33646	88	0
93	34666	89	0
94	5062	22	4.597910949188
94	5483	23	5.3561160519729
94	5904	24	6.9029028492215
94	6325	25	7.3541676156689
94	6746	26	8.3278058131891
94	7167	27	8.8861326650457
94	7588	28	11.011506358501
94	8009	29	11.19791169887
94	8430	30	14.512004946881
94	9521	31	13.091892650083
94	10357	32	15.958865970267
94	10778	33	16.60493666046
94	11199	34	19.713714356549
94	11620	35	15.26229540285
94	12041	36	5.0681688343995
94	12462	37	4.9460784481715
94	12883	38	5.6800154887754
94	13304	39	5.5415506300697
94	13725	40	4.7868004176217
94	14146	41	5.0643547817216
94	14567	42	5.7422013540655
94	14988	43	4.7241105924739
94	15409	44	5.9605797409571
94	15830	45	5.1722682975286
94	16251	46	5.33106538185
94	16652	47	4.6930342364928
94	17053	48	5.1574566849071
94	17454	49	6.0796140207709
94	17855	50	4.6366027436179
94	18256	51	5.7653104462849
94	18657	52	5.526379027134
94	19058	53	4.9565174528417
94	19459	54	5.2397483318813
94	19860	55	5.1576626372445
94	20261	56	5.5945294789358
94	21050	57	4.6325403593058
94	21451	58	5.4388472756278
94	21852	59	5.6606727291491
94	22253	60	4.6084488319239
94	23098	61	5.4028949305806
94	23499	62	5.0451844562281
94	23900	63	0.973
94	24301	64	0.973
94	24682	65	0.973
94	25063	66	0.973
94	25444	67	0.973
94	25825	68	0.973
94	26507	69	1.4051120836038
94	26888	70	5.7795518247209
94	27269	71	7.9118801302484
94	27650	72	8.5606538394186
94	28031	73	8.8957823872451
94	28412	74	11.521458524459
94	28793	75	0.973
94	29174	76	0.973
94	29555	77	0.973
94	29936	78	0.973
94	30317	79	0.973
94	30698	80	0.973
94	31079	81	0.973
94	31460	82	0.973
94	31841	83	0.973
94	32202	84	0.973
94	32563	85	0.973
94	32924	86	0.973
94	33285	87	0.973
94	33646	88	0.973
94	34666	89	0.973

